
  EPA STORM WATER MANAGEMENT MODEL - VERSION 5.2 (Build 5.2.4)
  PYSWMM TOOLKIT API - VERSION v1.0 (2026-02-26)
  ------------------------------------------------------------

  WARNING 03: negative offset ignored for Link YS02001904YS02001907
  
  ****************
  Analysis Options
  ****************
  Flow Units ............... LPS
  Process Models:
    Rainfall/Runoff ........ YES
    RDII ................... NO
    Snowmelt ............... NO
    Groundwater ............ NO
    Flow Routing ........... YES
    Ponding Allowed ........ NO
    Water Quality .......... NO
  Infiltration Method ...... HORTON
  Flow Routing Method ...... DYNWAVE
  Surcharge Method ......... EXTRAN
  Starting Date ............ 08/28/2015 08:00:00
  Ending Date .............. 08/28/2015 12:00:00
  Antecedent Dry Days ...... 8.0
  Report Time Step ......... 00:01:00
  Wet Time Step ............ 00:01:00
  Dry Time Step ............ 00:01:00
  Routing Time Step ........ 30.00 sec
  Variable Time Step ....... YES
  Maximum Trials ........... 8
  Number of Threads ........ 4
  Head Tolerance ........... 0.001500 m
  
  
  **************************        Volume         Depth
  Runoff Quantity Continuity     hectare-m            mm
  **************************     ---------       -------
  Total Precipitation ......        54.413       898.228
  Evaporation Loss .........         0.000         0.000
  Infiltration Loss ........         0.194         3.198
  Surface Runoff ...........        54.037       892.026
  Final Storage ............         0.199         3.293
  Continuity Error (%) .....        -0.032
  
  
  **************************        Volume        Volume
  Flow Routing Continuity        hectare-m      10^6 ltr
  **************************     ---------     ---------
  Dry Weather Inflow .......         0.026         0.261
  Wet Weather Inflow .......        54.034       540.350
  Groundwater Inflow .......         0.000         0.000
  RDII Inflow ..............         0.000         0.000
  External Inflow ..........         0.015         0.148
  External Outflow .........         3.722        37.218
  Flooding Loss ............        50.150       501.508
  Evaporation Loss .........         0.000         0.000
  Exfiltration Loss ........         0.000         0.000
  Initial Stored Volume ....         0.243         2.431
  Final Stored Volume ......         0.448         4.481
  Continuity Error (%) .....        -0.003
  
  
  *************************
  Highest Continuity Errors
  *************************
  Node YS02001583 (-14.41%)
  Node YS02001884 (8.60%)
  
  
  ***************************
  Time-Step Critical Elements
  ***************************
  Link YS02001791YS02001793 (50.95%)
  Link WS02006280WS02006229 (22.58%)
  Link WS02006238WS02006235 (12.22%)
  Link WS02006115WS02006116 (2.61%)
  Link YS02006556YS02006558 (1.62%)
  
  
  ********************************
  Highest Flow Instability Indexes
  ********************************
  Link YS02001605YS02001607 (51)
  Link WS02006229WS02006228 (49)
  Link YS02001602YS02001605 (48)
  Link WS02006238WS02006235 (48)
  Link YS02001619YS02001622 (47)
  
  
  *********************************
  Most Frequent Nonconverging Nodes
  *********************************
  Node CC-1 (16.17%)
  Node CC-2 (16.17%)
  Node JK-1 (16.17%)
  Node JK-2 (16.17%)
  Node WS02004402 (16.17%)
  
  
  *************************
  Routing Time Step Summary
  *************************
  Minimum Time Step           :     0.05 sec
  Average Time Step           :     2.12 sec
  Maximum Time Step           :     9.92 sec
  % of Time in Steady State   :     0.00
  Average Iterations per Step :     4.50
  % of Steps Not Converging   :    16.17
  Time Step Frequencies       :
     30.000 - 13.228 sec      :     0.00 %
     13.228 -  5.833 sec      :     3.65 %
      5.833 -  2.572 sec      :     4.98 %
      2.572 -  1.134 sec      :    84.02 %
      1.134 -  0.500 sec      :     7.35 %
  
  
  ***************************
  Subcatchment Runoff Summary
  ***************************
  
  ------------------------------------------------------------------------------------------------------------------------------
                            Total      Total      Total      Total     Imperv       Perv      Total       Total     Peak  Runoff
                           Precip      Runon       Evap      Infil     Runoff     Runoff     Runoff      Runoff   Runoff   Coeff
  Subcatchment                 mm         mm         mm         mm         mm         mm         mm    10^6 ltr      LPS
  ------------------------------------------------------------------------------------------------------------------------------
  sub0                     898.23       0.00       0.00       1.01     834.29      61.83     896.12        0.73   554.94   0.998
  sub1                     898.23       0.00       0.00       1.58     797.91      96.94     894.85        5.95  4295.56   0.996
  sub10                    898.23       0.00       0.00       1.15     824.88      70.56     895.44        9.88  7154.92   0.997
  sub11                    898.23       0.00       0.00       1.15     825.06      70.59     895.66       10.41  7677.77   0.997
  sub12                    898.23       0.00       0.00       1.87     780.41     114.71     895.12        7.82  5905.99   0.997
  sub14                    898.23       0.00       0.00       1.29     816.02      79.39     895.40        8.52  6233.02   0.997
  sub15                    898.23       0.00       0.00       4.31     627.67     263.46     891.13       15.33 10840.74   0.992
  sub16                    898.23       0.00       0.00       4.74     600.97     290.34     891.31        9.33  6763.36   0.992
  sub17                    898.23       0.00       0.00       4.60     609.92     281.50     891.42        7.65  5524.41   0.992
  sub2                     898.23       0.00       0.00       5.31     564.62     322.64     887.25        8.27  5523.52   0.988
  sub22                    898.23       0.00       0.00       6.18     511.19     376.80     888.00       56.10 38663.43   0.989
  sub23                    898.23       0.00       0.00       5.31     565.02     324.91     889.93       42.45 29939.09   0.991
  sub3                     898.23       0.00       0.00       5.31     564.24     320.53     884.77       19.92 12800.68   0.985
  sub4                     898.23       0.00       0.00       1.58     796.36      96.66     893.03       18.63 12667.00   0.994
  sub5                     898.23       0.00       0.00       1.01     833.77      61.75     895.52       10.15  7329.12   0.997
  sub60                    898.23       0.00       0.00       1.72     789.23     105.83     895.06       11.76  8696.90   0.996
  sub61                    898.23       0.00       0.00       2.44     744.42     149.83     894.26       16.41 12132.65   0.996
  sub62                    898.23       0.00       0.00       1.15     824.82      70.55     895.38       24.53 17733.82   0.997
  sub63                    898.23       0.00       0.00       4.17     636.77     255.08     891.86       20.25 14560.96   0.993
  sub64                    898.23       0.00       0.00       2.15     761.89     132.02     893.91       21.47 15345.27   0.995
  sub65                    898.23       0.00       0.00       1.87     779.64     114.42     894.06       24.61 17489.09   0.995
  sub66                    898.23       0.00       0.00       4.17     635.77     252.62     888.39       41.43 27434.08   0.989
  sub67                    898.23       0.00       0.00       1.15     825.23      70.63     895.86       16.66 12555.95   0.997
  sub68                    898.23       0.00       0.00       2.01     771.18     123.37     894.56       24.62 17933.17   0.996
  sub69                    898.23       0.00       0.00       2.15     762.82     132.51     895.32       33.15 23431.18   0.997
  sub7                     898.23       0.00       0.00       1.29     816.16      79.42     895.58        3.02  2242.73   0.997
  sub70                    898.23       0.00       0.00       4.88     591.59     295.07     886.66       25.62 16205.93   0.987
  sub71                    898.23       0.00       0.00       1.15     824.43      70.51     894.94       23.40 16667.90   0.996
  sub72                    898.23       0.00       0.00       1.01     832.82      61.67     894.49       12.30  8582.41   0.996
  sub8                     898.23       0.00       0.00       1.29     816.06      79.39     895.45        5.72  4203.56   0.997
  sub9                     898.23       0.00       0.00       1.29     816.04      79.39     895.43        4.31  3156.02   0.997
  
  
  ******************
  Node Depth Summary
  ******************
  
  ---------------------------------------------------------------------------------
                                 Average  Maximum  Maximum  Time of Max    Reported
                                   Depth    Depth      HGL   Occurrence   Max Depth
  Node                 Type       Meters   Meters   Meters  days hr:min      Meters
  ---------------------------------------------------------------------------------
  HS02004478           JUNCTION     0.98     1.64    10.87     0  01:08        1.59
  HS02004479           JUNCTION     1.07     1.81    11.02     0  01:08        1.67
  HS02004480           JUNCTION     1.04     1.80    11.04     0  01:08        1.64
  HS02004770           JUNCTION     0.92     1.42    11.25     0  01:07        1.42
  HS02004777           JUNCTION     0.95     1.48    11.28     0  01:07        1.48
  HS02004785           JUNCTION     0.86     1.49    11.39     0  01:07        1.41
  HS02004788           JUNCTION     0.84     1.42    11.32     0  01:07        1.42
  HS02004792           JUNCTION     1.01     1.60    11.12     0  01:06        1.60
  HS02004799           JUNCTION     1.15     1.76    10.97     0  01:08        1.76
  HS02004802           JUNCTION     1.14     1.81    10.93     0  01:11        1.80
  HS02004807           JUNCTION     1.19     1.92    11.09     0  01:11        1.92
  HS02004817           JUNCTION     1.57     2.43    11.28     0  03:00        2.43
  HS02004824           JUNCTION     1.16     2.01    11.41     0  01:23        2.01
  HS02004830           JUNCTION     1.15     2.03    11.50     0  01:09        2.03
  HS02004837           JUNCTION     1.11     2.04    11.62     0  01:09        2.04
  HS02004842           JUNCTION     1.37     2.22    11.49     0  01:11        2.22
  HS02004848           JUNCTION     1.12     2.07    11.67     0  01:53        2.07
  HS02004852           JUNCTION     1.14     2.08    11.59     0  02:07        2.08
  HS02004856           JUNCTION     1.17     2.07    11.50     0  01:11        2.07
  HS02004862           JUNCTION     1.14     2.00    11.38     0  01:11        2.00
  HS02004870           JUNCTION     1.16     2.10    11.39     0  01:53        2.10
  HS02004876           JUNCTION     1.26     2.26    11.29     0  01:52        2.26
  HS02004881           JUNCTION     1.11     2.15    11.18     0  01:11        2.15
  HS02004901           JUNCTION     0.91     1.42    11.28     0  01:07        1.42
  WS02004401           JUNCTION     0.76     1.19     7.19     0  02:13        1.19
  WS02006109           JUNCTION     1.96     2.64     9.26     0  01:08        2.64
  WS02006110           JUNCTION     1.69     2.76     9.34     0  01:07        2.48
  WS02006111           JUNCTION     0.95     1.99     8.70     0  02:15        1.99
  WS02006112           JUNCTION     1.49     2.68     8.56     0  02:09        2.68
  WS02006113           JUNCTION     1.11     1.99     8.89     0  02:14        1.99
  WS02006115           JUNCTION     1.01     1.88     8.02     0  02:14        1.88
  WS02006116           JUNCTION     0.92     1.61     7.65     0  02:10        1.60
  WS02006228           JUNCTION     2.23     3.03     9.68     0  01:09        3.03
  WS02006229           JUNCTION     2.36     3.25     9.94     0  01:09        3.22
  WS02006230           JUNCTION     2.03     2.65     9.39     0  01:08        2.65
  WS02006231           JUNCTION     1.64     2.24     9.36     0  01:07        2.21
  WS02006232           JUNCTION     1.68     2.18     9.22     0  01:07        2.18
  WS02006234           JUNCTION     1.52     1.96     9.12     0  01:08        1.96
  WS02006235           JUNCTION     1.50     2.00     9.16     0  01:08        1.94
  WS02006238           JUNCTION     1.51     2.15     9.29     0  01:08        1.95
  WS02006239           JUNCTION     1.41     2.03     9.24     0  01:08        1.80
  WS02006240           JUNCTION     1.29     2.10     9.39     0  01:09        1.65
  WS02006242           JUNCTION     1.28     1.55     8.82     0  01:09        1.55
  WS02006243           JUNCTION     1.12     1.48     8.90     0  01:09        1.38
  WS02006245           JUNCTION     1.06     1.56     9.04     0  01:09        1.27
  WS02006247           JUNCTION     1.04     1.47     8.97     0  01:09        1.24
  WS02006248           JUNCTION     0.95     1.10     8.69     0  01:09        1.10
  WS02006249           JUNCTION     0.96     1.09     8.69     0  01:09        1.09
  WS02006251           JUNCTION     1.62     2.21     9.88     0  01:11        2.21
  WS02006252           JUNCTION     1.10     1.50     9.74     0  00:00        1.50
  WS02006253           JUNCTION     2.21     3.51    11.16     0  01:11        3.46
  WS02006256           JUNCTION     1.91     2.35     9.28     0  00:00        2.35
  WS02006280           JUNCTION     1.10     1.76    10.03     0  01:09        1.74
  WS02006284           JUNCTION     1.32     2.06    10.46     0  01:08        1.95
  WS02006287           JUNCTION     1.10     1.83    10.78     0  01:08        1.75
  YS02001580           JUNCTION     0.50     1.05     9.59     0  01:08        1.05
  YS02001583           JUNCTION     0.54     1.14     9.64     0  01:08        0.92
  YS02001586           JUNCTION     0.78     1.13     9.30     0  01:08        1.13
  YS02001590           JUNCTION     0.97     1.40     9.26     0  01:07        1.38
  YS02001593           JUNCTION     0.89     1.41     9.27     0  01:07        1.30
  YS02001596           JUNCTION     1.16     1.80     9.22     0  01:06        1.67
  YS02001600           JUNCTION     1.34     1.87     9.00     0  01:07        1.87
  YS02001601           JUNCTION     1.54     2.06     8.90     0  01:07        2.06
  YS02001602           JUNCTION     1.39     1.87     8.77     0  01:10        1.87
  YS02001605           JUNCTION     1.30     1.78     8.68     0  01:10        1.78
  YS02001607           JUNCTION     1.20     1.68     8.53     0  01:09        1.68
  YS02001610           JUNCTION     1.24     1.68     8.48     0  01:09        1.68
  YS02001613           JUNCTION     1.21     1.70     8.54     0  01:09        1.70
  YS02001616           JUNCTION     1.16     1.61     8.52     0  01:09        1.61
  YS02001619           JUNCTION     1.15     1.61     8.54     0  01:09        1.61
  YS02001622           JUNCTION     1.13     1.59     8.49     0  01:54        1.58
  YS02001625           JUNCTION     1.33     1.78     8.38     0  01:10        1.78
  YS02001629           JUNCTION     1.37     1.85     8.40     0  01:10        1.85
  YS02001633           JUNCTION     1.49     2.08     8.53     0  01:42        2.08
  YS02001641           JUNCTION     1.43     1.97     8.41     0  01:54        1.97
  YS02001644           JUNCTION     1.41     1.92     8.35     0  01:12        1.92
  YS02001647           JUNCTION     1.24     1.79     8.40     0  01:42        1.79
  YS02001649           JUNCTION     1.43     2.05     8.44     0  01:42        2.05
  YS02001652           JUNCTION     1.34     2.15     8.75     0  02:09        2.15
  YS02001655           JUNCTION     1.22     2.20     9.05     0  01:58        2.20
  YS02001658           JUNCTION     1.09     2.30     9.44     0  02:01        2.30
  YS02001661           JUNCTION     1.02     2.44     9.85     0  02:02        2.44
  YS02001664           JUNCTION     0.75     2.31    10.23     0  02:01        2.31
  YS02001745           JUNCTION     0.77     2.35     9.87     0  02:12        2.35
  YS02001748           JUNCTION     1.02     2.27     9.35     0  02:08        2.27
  YS02001751           JUNCTION     1.12     2.20     9.08     0  02:10        2.19
  YS02001754           JUNCTION     1.29     2.19     8.79     0  02:12        2.18
  YS02001757           JUNCTION     1.53     2.21     8.47     0  01:53        2.21
  YS02001759           JUNCTION     1.48     2.21     8.57     0  01:54        2.21
  YS02001762           JUNCTION     1.45     2.15     8.55     0  01:59        2.15
  YS02001765           JUNCTION     1.40     2.08     8.53     0  02:14        2.08
  YS02001767           JUNCTION     1.37     2.03     8.52     0  01:54        2.03
  YS02001770           JUNCTION     1.36     1.95     8.44     0  01:11        1.95
  YS02001774           JUNCTION     1.41     2.03     8.45     0  01:11        2.03
  YS02001779           JUNCTION     1.16     1.68     8.37     0  01:11        1.68
  YS02001783           JUNCTION     0.84     1.48     7.62     0  02:08        1.48
  YS02001784           JUNCTION     0.77     1.32     7.38     0  02:08        1.31
  YS02001786           JUNCTION     0.61     0.99     7.02     0  02:10        0.99
  YS02001788           JUNCTION     0.43     0.68     6.65     0  02:35        0.68
  YS02001790           JUNCTION     0.48     0.74     6.38     0  02:43        0.72
  YS02001791           JUNCTION     0.29     0.46     5.93     0  02:16        0.46
  YS02001793           JUNCTION     0.15     0.30     5.13     0  01:38        0.27
  YS02001882           JUNCTION     1.07     1.83     8.55     0  01:10        1.83
  YS02001884           JUNCTION     1.16     1.93     8.55     0  01:58        1.92
  YS02001887           JUNCTION     1.24     2.00     8.54     0  01:53        2.00
  YS02001890           JUNCTION     1.20     1.81     8.32     0  01:10        1.81
  YS02001895           JUNCTION     0.98     1.75     8.50     0  01:10        1.60
  YS02001898           JUNCTION     0.98     1.77     8.51     0  01:10        1.58
  YS02001901           JUNCTION     1.08     1.87     8.48     0  01:10        1.70
  YS02001904           JUNCTION     1.05     1.85     8.48     0  01:10        1.65
  YS02001907           JUNCTION     1.35     1.96     8.25     0  01:10        1.96
  YS02001910           JUNCTION     1.28     2.03     8.53     0  01:54        2.03
  YS02001915           JUNCTION     1.19     2.00     8.72     0  01:36        2.00
  YS02001918           JUNCTION     0.98     1.81     8.88     0  01:11        1.81
  YS02001920           JUNCTION     1.09     2.14     9.15     0  01:11        2.03
  YS02001923           JUNCTION     0.93     2.03     9.29     0  01:11        1.92
  YS02001926           JUNCTION     0.89     1.90     9.35     0  01:11        1.88
  YS02001929           JUNCTION     0.76     1.78     9.47     0  01:11        1.78
  YS02006553           JUNCTION     1.39     2.14     8.42     0  02:12        2.13
  YS02006556           JUNCTION     1.41     2.33     8.64     0  02:03        2.33
  YS02006558           JUNCTION     1.48     2.50     8.77     0  02:02        2.50
  YS02006561           JUNCTION     0.62     1.21     7.87     0  02:12        1.20
  YS02163301           JUNCTION     1.41     1.96     8.47     0  01:53        1.96
  YS02163601           JUNCTION     1.50     2.08     8.48     0  01:54        2.08
  YS02164001           JUNCTION     1.42     1.99     8.45     0  02:47        1.98
  YSB1154              JUNCTION     1.32     2.10    11.16     0  01:41        2.10
  YSB1171              JUNCTION     1.34     1.95    10.85     0  01:08        1.95
  YSB1174              JUNCTION     1.22     1.95    11.06     0  01:51        1.95
  YSB6556              JUNCTION     1.15     1.80    10.97     0  01:09        1.80
  CC-1                 OUTFALL      0.00     0.00     0.00     0  00:00        0.00
  CC-2                 OUTFALL      0.00     0.00     0.00     0  00:00        0.00
  JK-1                 OUTFALL      0.00     0.00     0.00     0  00:00        0.00
  JK-2                 OUTFALL      0.00     0.00     0.00     0  00:00        0.00
  WS02004402           OUTFALL      0.61     0.88     6.84     0  02:14        0.88
  CC-storage           STORAGE      1.72     2.30     7.80     0  02:14        2.30
  JK-storage           STORAGE      2.35     4.22     5.02     0  01:12        4.14
  
  
  *******************
  Node Inflow Summary
  *******************
  
  -------------------------------------------------------------------------------------------------
                                  Maximum  Maximum                  Lateral       Total        Flow
                                  Lateral    Total  Time of Max      Inflow      Inflow     Balance
                                   Inflow   Inflow   Occurrence      Volume      Volume       Error
  Node                 Type           LPS      LPS  days hr:min    10^6 ltr    10^6 ltr     Percent
  -------------------------------------------------------------------------------------------------
  HS02004478           JUNCTION      0.00  2595.60     0  01:08           0        18.7      -0.001
  HS02004479           JUNCTION      0.00   526.29     0  01:11           0        1.82       0.109
  HS02004480           JUNCTION      0.00  2419.19     0  01:08           0        11.3       0.026
  HS02004770           JUNCTION  29939.09 30834.78     0  02:25        42.4          47       0.012
  HS02004777           JUNCTION      0.03   887.94     0  01:07    0.000432        2.71       0.325
  HS02004785           JUNCTION      0.15   897.20     0  01:07     0.00216         2.7       0.126
  HS02004788           JUNCTION  10842.41 10842.41     0  02:25        15.4        16.5       0.008
  HS02004792           JUNCTION  38663.71 39753.42     0  02:25        56.1        63.6       0.005
  HS02004799           JUNCTION   6233.02  7375.11     0  02:24        8.52        18.3       0.055
  HS02004802           JUNCTION      0.00  1240.59     0  03:01           0        8.87       0.061
  HS02004807           JUNCTION   7677.77  8874.31     0  02:24        10.4        18.7       0.042
  HS02004817           JUNCTION      0.60  1197.05     0  02:53     0.00864        8.35       0.241
  HS02004824           JUNCTION  12667.05 13539.28     0  02:25        18.6        23.2       0.007
  HS02004830           JUNCTION      0.15  1048.39     0  02:25     0.00216        4.93       0.063
  HS02004837           JUNCTION   7161.27  7161.27     0  02:24        9.97        10.4       0.014
  HS02004842           JUNCTION      0.00  2354.69     0  02:31           0         8.6       0.170
  HS02004848           JUNCTION  12800.68 12800.68     0  02:25        19.9        20.2       0.008
  HS02004852           JUNCTION      0.00  1112.65     0  01:10           0        5.49       0.031
  HS02004856           JUNCTION   3156.02  4036.76     0  02:24        4.31         9.8       0.028
  HS02004862           JUNCTION   5523.72  6689.29     0  02:25        8.27        15.3       0.016
  HS02004870           JUNCTION   4203.56  4203.56     0  02:24        5.72        10.1       0.014
  HS02004876           JUNCTION   4295.56  5221.54     0  02:25        5.95          14       0.030
  HS02004881           JUNCTION   2242.73  3233.28     0  02:24        3.02        13.1       0.012
  HS02004901           JUNCTION   6763.36  6763.36     0  02:24        9.33        9.33       0.027
  WS02004401           JUNCTION      0.00  2427.32     0  02:12           0        16.7       0.095
  WS02006109           JUNCTION      1.23  1371.94     0  01:08      0.0177        12.3       0.176
  WS02006110           JUNCTION      0.00  1376.61     0  01:08           0        11.3       0.199
  WS02006111           JUNCTION      0.00  1383.08     0  01:08           0        11.2       0.060
  WS02006112           JUNCTION   5524.41  6361.87     0  02:24        7.65        18.9       0.218
  WS02006113           JUNCTION      0.00  1379.93     0  01:08           0        11.2       0.146
  WS02006115           JUNCTION      0.00  2427.22     0  02:14           0        16.7       0.127
  WS02006116           JUNCTION      0.00  2427.64     0  02:14           0        16.7       0.059
  WS02006228           JUNCTION      0.00  1366.82     0  01:08           0        12.3       0.108
  WS02006229           JUNCTION      0.00  2330.27     0  03:01           0        19.8       0.080
  WS02006230           JUNCTION     10.28  1026.21     0  01:53       0.148        8.66       0.254
  WS02006231           JUNCTION      0.00   819.46     0  01:08           0        4.62       0.279
  WS02006232           JUNCTION      0.00   818.26     0  01:08           0        4.61       0.370
  WS02006234           JUNCTION      0.00   815.63     0  01:08           0        4.59       0.322
  WS02006235           JUNCTION      0.00   804.92     0  01:08           0        4.33       0.165
  WS02006238           JUNCTION      0.00   797.67     0  01:08           0        4.17       0.150
  WS02006239           JUNCTION      0.00   792.86     0  01:08           0        4.16       0.285
  WS02006240           JUNCTION      0.00  1009.35     0  01:09           0        4.14       0.306
  WS02006242           JUNCTION      0.00   950.73     0  01:09           0        4.14       0.334
  WS02006243           JUNCTION      0.00   521.25     0  01:09           0        3.08       0.497
  WS02006245           JUNCTION      0.00   519.71     0  01:09           0         3.1       0.622
  WS02006247           JUNCTION      0.00   526.67     0  01:09           0        3.11       0.354
  WS02006248           JUNCTION      0.00   552.44     0  01:09           0        3.64       0.329
  WS02006249           JUNCTION      0.00  1411.09     0  02:17           0          12       0.172
  WS02006251           JUNCTION      0.08  1945.13     0  02:24     0.00111        14.5       0.123
  WS02006252           JUNCTION      0.00   820.21     0  02:02           0         6.5       0.007
  WS02006253           JUNCTION    554.94  1945.04     0  02:24       0.726          13       0.119
  WS02006256           JUNCTION      0.00   300.00     0  00:00           0        2.56      -0.038
  WS02006280           JUNCTION      0.00  2328.11     0  03:01           0        18.7      -0.011
  WS02006284           JUNCTION      0.10  2433.65     0  01:08     0.00138        18.7       0.005
  WS02006287           JUNCTION      0.00  2546.29     0  01:08           0        18.7       0.071
  YS02001580           JUNCTION      0.00   209.29     0  01:08           0      0.0048       2.514
  YS02001583           JUNCTION      0.00   252.24     0  01:08           0      0.0149     -12.595
  YS02001586           JUNCTION  16205.93 16205.93     0  02:25        25.6        25.6       0.013
  YS02001590           JUNCTION      0.00   317.98     0  02:45           0        2.84       0.096
  YS02001593           JUNCTION      0.00   318.15     0  03:15           0        2.84       0.053
  YS02001596           JUNCTION      0.00   318.12     0  01:17           0        2.84       0.021
  YS02001600           JUNCTION      0.00   318.22     0  03:15           0        2.84       0.056
  YS02001601           JUNCTION  23431.18 23748.69     0  02:25        33.1          36       0.016
  YS02001602           JUNCTION      0.00   610.32     0  01:08           0        3.72       0.149
  YS02001605           JUNCTION      0.00   610.59     0  01:08           0        3.25       0.245
  YS02001607           JUNCTION      0.00   610.29     0  01:08           0        3.24       0.274
  YS02001610           JUNCTION      0.00   956.25     0  02:55           0        7.04       0.131
  YS02001613           JUNCTION      0.00   619.59     0  02:55           0        4.63       0.177
  YS02001616           JUNCTION      0.00   619.89     0  02:55           0        4.63       0.113
  YS02001619           JUNCTION  27434.08 27434.08     0  02:25        41.4        42.2       0.011
  YS02001622           JUNCTION      0.00  1053.97     0  02:58           0        8.75       0.074
  YS02001625           JUNCTION      0.00  1505.50     0  02:56           0        11.6       0.218
  YS02001629           JUNCTION      0.00  1138.95     0  02:14           0        7.39       0.041
  YS02001633           JUNCTION  17489.29 17489.29     0  02:25        24.6        26.3       0.055
  YS02001641           JUNCTION      0.00  1362.77     0  01:10           0         7.2       0.134
  YS02001644           JUNCTION  15345.31 17096.96     0  02:25        21.5        32.5       0.035
  YS02001647           JUNCTION      0.00  1855.22     0  01:10           0           7       0.069
  YS02001649           JUNCTION      0.00  3237.09     0  02:13           0        16.5       0.057
  YS02001652           JUNCTION      0.00  2429.25     0  02:14           0        11.4      -0.021
  YS02001655           JUNCTION      0.15  2731.44     0  02:14     0.00222          12       0.025
  YS02001658           JUNCTION      0.00  2783.77     0  02:03           0        12.2      -0.002
  YS02001661           JUNCTION      0.00  2783.75     0  02:13           0        12.2       0.005
  YS02001664           JUNCTION  14560.96 14560.96     0  02:24        20.2        20.2      -0.003
  YS02001745           JUNCTION   8696.91  8696.91     0  02:24        11.8        11.8       0.015
  YS02001748           JUNCTION      0.04  3122.13     0  02:20    0.000648         9.3      -0.025
  YS02001751           JUNCTION      0.01  2354.17     0  02:14    0.000158        8.35       0.021
  YS02001754           JUNCTION      0.26  2354.66     0  02:14     0.00374        8.35      -0.022
  YS02001757           JUNCTION      0.00  3761.77     0  02:15           0        23.2       0.195
  YS02001759           JUNCTION  12132.69 12132.69     0  02:24        16.4          18       0.035
  YS02001762           JUNCTION      0.00   811.71     0  01:16           0        3.85       0.142
  YS02001765           JUNCTION      0.00   811.84     0  01:16           0        3.85       0.140
  YS02001767           JUNCTION      0.54   811.76     0  01:16      0.0077        3.85       0.164
  YS02001770           JUNCTION  17733.97 18456.15     0  02:25        24.5        26.9       0.017
  YS02001774           JUNCTION      0.00   852.08     0  01:43           0        4.97       0.121
  YS02001779           JUNCTION      0.01   851.75     0  02:45     7.2e-05        4.93       0.001
  YS02001783           JUNCTION      0.00  1321.70     0  02:10           0        9.44       0.012
  YS02001784           JUNCTION      1.06  1322.59     0  02:05      0.0153        9.45       0.023
  YS02001786           JUNCTION      0.06  1322.67     0  02:12    0.000811        9.45       0.020
  YS02001788           JUNCTION      0.07  1322.67     0  02:04     0.00102        9.45       0.012
  YS02001790           JUNCTION      0.15  1328.54     0  02:03     0.00223        9.45       0.025
  YS02001791           JUNCTION      0.00  1368.67     0  02:03           0        9.45      -0.012
  YS02001793           JUNCTION      0.00  1356.01     0  02:16           0        9.45       0.005
  YS02001882           JUNCTION      0.00   157.22     0  01:09           0      0.0133      10.348
  YS02001884           JUNCTION      0.00   247.87     0  01:09           0      0.0493       9.404
  YS02001887           JUNCTION  12556.40 12556.40     0  02:24        16.7        16.7       0.037
  YS02001890           JUNCTION      0.00  2052.03     0  02:08           0        9.45       0.075
  YS02001895           JUNCTION      0.00   559.06     0  01:10           0        3.68       0.125
  YS02001898           JUNCTION      0.00   564.92     0  01:10           0        3.67       0.004
  YS02001901           JUNCTION      0.00   571.85     0  01:10           0        3.68       0.132
  YS02001904           JUNCTION      0.00   575.10     0  01:10           0         3.7       0.108
  YS02001907           JUNCTION      0.00  4670.66     0  02:05           0        23.3       0.090
  YS02001910           JUNCTION      0.00  1993.14     0  01:47           0        12.8       0.074
  YS02001915           JUNCTION  16667.92 17889.62     0  02:25        23.4        29.8       0.010
  YS02001918           JUNCTION      0.00  1681.96     0  02:13           0        7.53       0.009
  YS02001920           JUNCTION      2.87  1682.15     0  02:12      0.0413        7.51       0.022
  YS02001923           JUNCTION      0.04  1679.28     0  02:06    0.000543        7.45       0.003
  YS02001926           JUNCTION      0.05  1679.12     0  02:13    0.000752        7.43       0.013
  YS02001929           JUNCTION   8582.41  8582.41     0  02:25        12.3        12.3      -0.005
  YS02006553           JUNCTION      0.00  2160.82     0  02:14           0        8.11       0.169
  YS02006556           JUNCTION      0.00  2160.96     0  02:14           0        8.13       0.118
  YS02006558           JUNCTION  17934.05 17934.05     0  02:24        24.6        25.9       0.016
  YS02006561           JUNCTION      0.00  1321.43     0  02:06           0        9.44       0.005
  YS02163301           JUNCTION      0.00  1138.87     0  01:55           0        7.39       0.125
  YS02163601           JUNCTION      0.11  1362.72     0  01:10     0.00158        7.19       0.213
  YS02164001           JUNCTION      0.00  1363.14     0  01:10           0        7.19       0.125
  YSB1154              JUNCTION   7329.12  7329.12     0  02:25        10.1        10.1       0.023
  YSB1171              JUNCTION      0.00  1630.61     0  01:55           0        9.31       0.095
  YSB1174              JUNCTION   5905.99  5905.99     0  02:24        7.82        7.82       0.028
  YSB6556              JUNCTION      0.00   725.69     0  01:58           0        4.27       0.067
  CC-1                 OUTFALL       0.00   683.00     0  00:00           0        6.91       0.000
  CC-2                 OUTFALL       0.00   683.00     0  00:00           0        6.73       0.000
  JK-1                 OUTFALL       0.00  1000.00     0  00:00           0        6.88       0.000
  JK-2                 OUTFALL       0.00  1000.00     0  00:00           0      0.0483       0.000
  WS02004402           OUTFALL       0.00  2427.30     0  02:14           0        16.6       0.000
  CC-storage           STORAGE       0.00  3447.55     0  01:15           0        22.1       0.030
  JK-storage           STORAGE       0.00  1357.35     0  02:16           0         9.6      -0.064
  
  
  **********************
  Node Surcharge Summary
  **********************
  
  Surcharging occurs when water rises above the top of the highest conduit.
  ---------------------------------------------------------------------
                                               Max. Height   Min. Depth
                                   Hours       Above Crown    Below Rim
  Node                 Type      Surcharged         Meters       Meters
  ---------------------------------------------------------------------
  HS02004478           JUNCTION        1.99          0.721        0.219
  HS02004479           JUNCTION        2.09          1.015        0.035
  HS02004480           JUNCTION        2.11          1.088        0.012
  HS02004770           JUNCTION        2.06          0.720        0.000
  HS02004777           JUNCTION        2.06          0.780        0.000
  HS02004785           JUNCTION        2.02          0.790        0.000
  HS02004788           JUNCTION        2.01          0.720        0.000
  HS02004792           JUNCTION        2.09          0.900        0.000
  HS02004799           JUNCTION        2.14          1.060        0.000
  HS02004802           JUNCTION        2.11          1.096        0.114
  HS02004807           JUNCTION        2.10          1.220        0.000
  HS02004817           JUNCTION        2.32          1.728        0.012
  HS02004824           JUNCTION        2.02          1.310        0.000
  HS02004830           JUNCTION        1.99          1.330        0.000
  HS02004837           JUNCTION        1.96          1.340        0.000
  HS02004842           JUNCTION        2.06          1.520        0.000
  HS02004848           JUNCTION        1.95          1.370        0.000
  HS02004852           JUNCTION        1.97          1.381        0.039
  HS02004856           JUNCTION        1.94          1.300        0.000
  HS02004862           JUNCTION        1.97          1.300        0.000
  HS02004870           JUNCTION        1.98          1.400        0.000
  HS02004876           JUNCTION        2.03          1.560        0.000
  HS02004881           JUNCTION        2.02          1.450        0.000
  HS02004901           JUNCTION        2.05          0.720        0.000
  WS02004401           JUNCTION        0.85          0.193        1.467
  WS02006109           JUNCTION        2.88          1.820        0.000
  WS02006110           JUNCTION        2.88          1.850        0.000
  WS02006111           JUNCTION        2.05          1.183        0.687
  WS02006112           JUNCTION        2.43          1.680        0.000
  WS02006113           JUNCTION        2.14          1.193        0.737
  WS02006115           JUNCTION        1.89          0.874        1.376
  WS02006116           JUNCTION        1.43          0.550        1.740
  WS02006228           JUNCTION        2.89          2.200        0.000
  WS02006229           JUNCTION        2.15          1.070        0.000
  WS02006230           JUNCTION        2.88          1.570        0.000
  WS02006231           JUNCTION        2.87          1.530        0.000
  WS02006232           JUNCTION        2.87          1.480        0.000
  WS02006234           JUNCTION        2.86          1.240        0.000
  WS02006235           JUNCTION        2.86          1.290        0.000
  WS02006238           JUNCTION        2.86          1.430        0.000
  WS02006239           JUNCTION        2.85          1.290        0.000
  WS02006240           JUNCTION        2.85          1.390        0.000
  WS02006242           JUNCTION        2.85          0.820        0.000
  WS02006243           JUNCTION        2.85          0.770        0.000
  WS02006245           JUNCTION        2.84          0.850        0.000
  WS02006247           JUNCTION        2.84          0.760        0.000
  WS02006248           JUNCTION        2.84          0.380        0.000
  WS02006249           JUNCTION        2.85          0.390        0.000
  WS02006251           JUNCTION        2.84          1.180        0.000
  WS02006252           JUNCTION        2.98          1.100        0.000
  WS02006253           JUNCTION        2.84          2.473        0.007
  WS02006256           JUNCTION        3.52          2.050        0.000
  WS02006280           JUNCTION        2.11          0.714        0.066
  WS02006284           JUNCTION        2.08          0.784        0.016
  WS02006287           JUNCTION        2.04          0.829        0.061
  YS02001580           JUNCTION        2.17          0.450        0.000
  YS02001583           JUNCTION        2.17          0.500        0.000
  YS02001586           JUNCTION        2.25          0.510        0.000
  YS02001590           JUNCTION        2.30          0.750        0.000
  YS02001593           JUNCTION        2.30          0.788        0.052
  YS02001596           JUNCTION        2.36          1.070        0.000
  YS02001600           JUNCTION        2.44          1.190        0.000
  YS02001601           JUNCTION        2.63          1.440        0.000
  YS02001602           JUNCTION        2.58          1.270        0.000
  YS02001605           JUNCTION        2.56          1.180        0.000
  YS02001607           JUNCTION        2.29          0.680        0.000
  YS02001610           JUNCTION        2.31          0.680        0.000
  YS02001613           JUNCTION        2.29          0.700        0.000
  YS02001616           JUNCTION        2.26          0.610        0.000
  YS02001619           JUNCTION        2.25          0.610        0.000
  YS02001622           JUNCTION        2.26          0.586        0.034
  YS02001625           JUNCTION        2.39          0.780        0.000
  YS02001629           JUNCTION        2.22          0.470        0.000
  YS02001633           JUNCTION        2.44          1.060        0.000
  YS02001641           JUNCTION        2.44          0.975        0.125
  YS02001644           JUNCTION        2.44          0.920        0.000
  YS02001647           JUNCTION        2.30          0.793        0.107
  YS02001649           JUNCTION        2.42          1.050        0.000
  YS02001652           JUNCTION        2.25          1.122        0.008
  YS02001655           JUNCTION        2.11          1.200        0.000
  YS02001658           JUNCTION        1.89          1.300        0.000
  YS02001661           JUNCTION        1.55          1.374        0.016
  YS02001664           JUNCTION        1.05          1.310        0.000
  YS02001745           JUNCTION        1.08          1.350        0.000
  YS02001748           JUNCTION        1.81          1.190        0.000
  YS02001751           JUNCTION        2.06          1.199        0.001
  YS02001754           JUNCTION        2.21          1.135        0.015
  YS02001757           JUNCTION        2.50          1.210        0.000
  YS02001759           JUNCTION        2.42          1.210        0.000
  YS02001762           JUNCTION        2.39          1.150        0.000
  YS02001765           JUNCTION        2.36          1.085        0.015
  YS02001767           JUNCTION        2.33          1.030        0.000
  YS02001770           JUNCTION        2.31          0.920        0.000
  YS02001774           JUNCTION        2.37          1.031        0.019
  YS02001779           JUNCTION        2.20          0.680        0.000
  YS02001783           JUNCTION        2.00          0.682        0.918
  YS02001784           JUNCTION        1.99          0.515        0.975
  YS02001786           JUNCTION        1.92          0.192        1.238
  YS02001882           JUNCTION        1.97          0.830        0.000
  YS02001884           JUNCTION        1.98          0.870        0.000
  YS02001887           JUNCTION        2.00          0.950        0.000
  YS02001890           JUNCTION        2.00          0.760        0.000
  YS02001895           JUNCTION        1.96          0.750        0.000
  YS02001898           JUNCTION        1.96          0.740        0.000
  YS02001901           JUNCTION        1.99          0.870        0.000
  YS02001904           JUNCTION        1.98          0.850        0.000
  YS02001907           JUNCTION        2.10          0.950        0.000
  YS02001910           JUNCTION        2.02          1.026        0.074
  YS02001915           JUNCTION        1.97          1.000        0.000
  YS02001918           JUNCTION        1.92          0.810        0.000
  YS02001920           JUNCTION        1.93          1.140        0.000
  YS02001923           JUNCTION        1.71          0.820        0.000
  YS02001926           JUNCTION        1.75          0.900        0.000
  YS02001929           JUNCTION        1.41          0.780        0.000
  YS02006553           JUNCTION        2.11          1.135        0.055
  YS02006556           JUNCTION        2.06          1.292        0.058
  YS02006558           JUNCTION        2.05          1.400        0.000
  YS02006561           JUNCTION        1.89          0.406        0.744
  YS02163301           JUNCTION        2.42          0.957        0.073
  YS02163601           JUNCTION        2.48          1.080        0.000
  YS02164001           JUNCTION        2.43          0.988        0.112
  YSB1154              JUNCTION        2.17          1.400        0.000
  YSB1171              JUNCTION        2.17          1.100        0.000
  YSB1174              JUNCTION        2.15          1.250        0.000
  YSB6556              JUNCTION        2.13          1.100        0.000
  
  
  *********************
  Node Flooding Summary
  *********************
  
  Flooding refers to all water that overflows a node, whether it ponds or not.
  --------------------------------------------------------------------------
                                                             Total   Maximum
                                 Maximum   Time of Max       Flood    Ponded
                        Hours       Rate    Occurrence      Volume     Depth
  Node                 Flooded       LPS   days hr:min    10^6 ltr    Meters
  --------------------------------------------------------------------------
  HS02004770              1.99  30831.93      0  02:25      45.847     0.000
  HS02004777              0.01     51.52      0  01:07       0.001     0.000
  HS02004785              0.01    215.97      0  01:07       0.000     0.000
  HS02004788              0.81   9325.22      0  02:25       7.550     0.000
  HS02004792              1.96  38603.20      0  02:25      53.776     0.000
  HS02004799              1.84   6069.16      0  02:24       7.283     0.000
  HS02004807              1.72   7640.67      0  02:24       9.775     0.000
  HS02004824              1.62  12335.77      0  02:25      14.844     0.000
  HS02004830              0.46    176.16      0  02:25       0.262     0.000
  HS02004837              0.38   5028.17      0  02:24       2.649     0.000
  HS02004842              1.60   2354.69      0  02:31       7.994     0.000
  HS02004848              0.76  10642.08      0  02:25       9.029     0.000
  HS02004856              0.96   3033.43      0  02:24       3.029     0.000
  HS02004862              1.56   6686.68      0  02:25      10.930     0.000
  HS02004870              0.52   3114.45      0  02:24       1.773     0.000
  HS02004876              0.80   4230.67      0  02:25       3.902     0.000
  HS02004881              0.34   1842.49      0  02:24       0.854     0.000
  HS02004901              1.35   6292.70      0  02:24       6.252     0.000
  WS02006109              1.19    450.76      0  02:12       1.037     0.000
  WS02006110              0.01    341.84      0  01:07       0.001     0.000
  WS02006112              0.40   3934.65      0  02:24       2.127     0.000
  WS02006228              0.01      3.88      0  01:09       0.000     0.000
  WS02006229              0.01     11.58      0  01:09       0.000     0.000
  WS02006230              2.07    573.67      0  01:53       3.965     0.000
  WS02006231              0.01     58.32      0  01:07       0.000     0.000
  WS02006232              0.31    431.86      0  01:07       0.002     0.000
  WS02006234              2.11    129.86      0  01:54       0.948     0.000
  WS02006235              0.01    123.60      0  01:09       0.001     0.000
  WS02006238              0.01    394.06      0  01:08       0.000     0.000
  WS02006239              0.01    426.00      0  01:08       0.001     0.000
  WS02006240              0.01    759.71      0  01:09       0.002     0.000
  WS02006242              2.14    913.52      0  01:09       1.076     0.000
  WS02006243              0.01    417.57      0  01:09       0.006     0.000
  WS02006245              0.01    256.04      0  01:09       0.001     0.000
  WS02006247              0.01     63.85      0  01:09       0.000     0.000
  WS02006248              2.23    373.45      0  01:12       2.652     0.000
  WS02006249              2.84   1350.24      0  02:36      10.463     0.000
  WS02006251              0.62    113.74      0  02:24       0.142     0.000
  WS02006252              1.98    820.21      0  02:02       4.983     0.000
  WS02006256              2.37    293.19      0  00:00       1.711     0.000
  YS02001580              0.01    122.65      0  01:08       0.001     0.000
  YS02001583              0.01    164.11      0  01:08       0.000     0.000
  YS02001586              2.14  15877.08      0  02:25      22.770     0.000
  YS02001590              0.01    158.27      0  01:07       0.000     0.000
  YS02001596              0.01     75.33      0  01:06       0.000     0.000
  YS02001600              0.01     15.71      0  01:07       0.000     0.000
  YS02001601              2.18  23343.57      0  02:25      32.249     0.000
  YS02001602              2.13     61.98      0  01:54       0.467     0.000
  YS02001605              0.01     13.93      0  01:10       0.000     0.000
  YS02001607              0.01    226.52      0  01:09       0.001     0.000
  YS02001610              2.09    955.51      0  02:55       6.212     0.000
  YS02001613              0.01    215.68      0  01:09       0.001     0.000
  YS02001616              0.25     30.70      0  01:10       0.001     0.000
  YS02001619              1.54  25747.95      0  02:25      29.663     0.000
  YS02001625              2.07   1505.27      0  02:56       9.909     0.000
  YS02001629              1.65    686.80      0  02:07       2.920     0.000
  YS02001633              0.92  15441.24      0  02:25      13.292     0.000
  YS02001644              1.85  17093.69      0  02:25      29.218     0.000
  YS02001649              1.01   2390.07      0  02:11       6.651     0.000
  YS02001655              0.67    303.23      0  02:04       0.687     0.000
  YS02001658              0.60     52.18      0  02:03       0.111     0.000
  YS02001664              0.59  11777.57      0  02:24       8.089     0.000
  YS02001745              0.30   5572.95      0  02:24       2.462     0.000
  YS02001748              0.41    769.13      0  02:15       0.962     0.000
  YS02001757              0.57    783.60      0  02:29       1.314     0.000
  YS02001759              0.62  10001.08      0  02:24       6.848     0.000
  YS02001762              0.11      1.36      0  02:09       0.000     0.000
  YS02001767              0.01      0.83      0  01:54       0.000     0.000
  YS02001770              1.36  17604.28      0  02:25      20.332     0.000
  YS02001779              1.82    851.47      0  02:45       4.911     0.000
  YS02001882              0.01     27.55      0  01:10       0.000     0.000
  YS02001884              0.01      0.76      0  02:00       0.000     0.000
  YS02001887              0.65  10498.52      0  02:24       7.205     0.000
  YS02001890              1.83   1537.14      0  02:14       5.767     0.000
  YS02001895              0.01    101.07      0  01:10       0.000     0.000
  YS02001898              0.01    131.45      0  01:10       0.000     0.000
  YS02001901              0.01     17.23      0  01:10       0.000     0.000
  YS02001904              0.01    143.88      0  01:10       0.000     0.000
  YS02001907              1.89   4670.20      0  02:05      21.931     0.000
  YS02001915              1.24  15892.83      0  02:25      16.923     0.000
  YS02001918              0.80    460.04      0  02:13       1.132     0.000
  YS02001920              0.01     90.82      0  01:11       0.000     0.000
  YS02001923              0.01    144.54      0  01:11       0.000     0.000
  YS02001926              0.01    445.22      0  01:11       0.003     0.000
  YS02001929              0.60   6900.59      0  02:25       4.895     0.000
  YS02006558              0.57  14452.27      0  02:24       9.652     0.000
  YS02163601              0.01      0.49      0  01:54       0.000     0.000
  YSB1154                 1.02   6603.08      0  02:25       5.883     0.000
  YSB1171                 1.88   1630.08      0  01:55       8.973     0.000
  YSB1174                 0.80   5152.43      0  02:24       3.932     0.000
  YSB6556                 1.13     85.86      0  02:41       0.329     0.000
  CC-storage              0.82    410.53      0  02:14       0.941     0.000
  
  
  **********************
  Storage Volume Summary
  **********************
  
  ------------------------------------------------------------------------------------------------
                         Average    Avg   Evap  Exfil     Maximum    Max    Time of Max    Maximum
                          Volume   Pcnt   Pcnt   Pcnt      Volume   Pcnt     Occurrence    Outflow
  Storage Unit           1000 m³   Full   Loss   Loss     1000 m³   Full    days hr:min        LPS
  ------------------------------------------------------------------------------------------------
  CC-storage               4.796   74.8    0.0    0.0       6.410  100.0       0  02:14    1783.54
  JK-storage               0.118   40.5    0.0    0.0       0.212   72.8       0  01:12    2300.00
  
  
  ***********************
  Outfall Loading Summary
  ***********************
  
  -----------------------------------------------------------
                         Flow       Avg       Max       Total
                         Freq      Flow      Flow      Volume
  Outfall Node           Pcnt       LPS       LPS    10^6 ltr
  -----------------------------------------------------------
  CC-1                  82.19    683.00    683.00       6.914
  CC-2                  80.11    683.00    683.00       6.730
  JK-1                  55.34   1000.00   1000.00       6.883
  JK-2                   0.31   1000.00   1000.00       0.048
  WS02004402            95.17   1415.51   2427.30      16.643
  -----------------------------------------------------------
  System                62.62   4781.51   4793.30      37.218
  
  
  ********************
  Link Flow Summary
  ********************
  
  -----------------------------------------------------------------------------
                                 Maximum  Time of Max   Maximum    Max/    Max/
                                  |Flow|   Occurrence   |Veloc|    Full    Full
  Link                 Type          LPS  days hr:min     m/sec    Flow   Depth
  -----------------------------------------------------------------------------
  HS02004478WS02006287 CONDUIT   2546.29     0  01:08      3.05    0.71    1.00
  HS02004479HS02004480 CONDUIT    527.15     0  01:11      0.75    0.51    1.00
  HS02004480HS02004478 CONDUIT   2420.32     0  01:08      3.46   10.19    1.00
  HS02004770HS02004777 CONDUIT    887.91     0  01:07      1.27    1.62    1.00
  HS02004777HS02004785 CONDUIT    897.05     0  01:07      1.43    1.10    1.00
  HS02004785HS02004788 CONDUIT    841.71     0  01:07      1.35    6.35    1.00
  HS02004788HS02004792 CONDUIT   1089.71     0  02:38      1.56    0.72    1.00
  HS02004792HS02004799 CONDUIT   1793.92     0  01:08      2.56    1.10    1.00
  HS02004799HS02004480 CONDUIT   1988.98     0  01:08      2.84    2.51    1.00
  HS02004802HS02004478 CONDUIT   1240.43     0  03:00      1.77    1.09    1.00
  HS02004807HS02004802 CONDUIT   1240.59     0  03:01      1.77    2.37    1.00
  HS02004817HS02004807 CONDUIT   1197.04     0  01:42      1.71    0.71    1.00
  HS02004817HS02004824 CONDUIT   1196.45     0  02:53      1.71    0.54    1.00
  HS02004824HS02004830 CONDUIT    872.23     0  02:31      1.25    1.14    1.00
  HS02004830HS02004837 CONDUIT   1048.24     0  02:25      1.50    1.04    1.00
  HS02004837HS02004842 CONDUIT   1084.84     0  02:32      1.55    0.65    1.00
  HS02004842HS02004848 CONDUIT   1269.84     0  02:38      1.81    0.74    1.00
  HS02004848HS02004852 CONDUIT   1112.65     0  01:10      1.70    1.25    1.00
  HS02004852HS02004856 CONDUIT   1090.78     0  01:10      1.56    1.25    1.00
  HS02004856HS02004862 CONDUIT   1167.21     0  01:10      1.71    1.16    1.00
  HS02004862HS02004870 CONDUIT   1273.32     0  01:11      1.94    1.38    1.00
  HS02004870HS02004876 CONDUIT   1310.94     0  01:10      2.00    0.87    1.00
  HS02004876HS02004881 CONDUIT   1520.97     0  02:58      2.38   16.18    1.00
  HS02004881HS02006253 CONDUIT   1743.47     0  02:40      2.96    0.34    1.00
  HS02004901HS02004770 CONDUIT    469.86     0  02:25      0.67    1.00    1.00
  WS02004401WS02004402 CONDUIT   2427.30     0  02:14      3.17    2.91    0.94
  WS02006109WS02006110 CONDUIT   1376.61     0  01:08      2.74    2.65    1.00
  WS02006110WS02006113 CONDUIT   1379.93     0  01:08      2.75    1.26    1.00
  WS02006111WS02006112 CONDUIT   1345.17     0  01:09      2.68    0.64    1.00
  WS02006112WS02006115 CONDUIT   2427.22     0  02:14      3.09    1.43    1.00
  WS02006113WS02006111 CONDUIT   1383.08     0  01:08      2.88    1.66    1.00
  WS02006115WS02006116 CONDUIT   2427.64     0  02:14      3.09    3.12    1.00
  WS02006116WS02004401 CONDUIT   2427.32     0  02:12      3.09    3.35    1.00
  WS02006228WS02006109 CONDUIT   1370.71     0  01:08      2.73    5.99    1.00
  WS02006229WS02006228 CONDUIT   1366.82     0  01:08      2.72    4.53    1.00
  WS02006230WS02006229 CONDUIT   1015.93     0  01:53      2.64   22.61    1.00
  WS02006231WS02006230 CONDUIT    819.46     0  01:08      2.13   12.43    1.00
  WS02006232WS02006231 CONDUIT    818.26     0  01:08      2.15    1.71    1.00
  WS02006234WS02006232 CONDUIT    815.63     0  01:08      2.35    1.65    1.00
  WS02006235WS02006234 CONDUIT    804.89     0  01:08      2.19    8.49    1.00
  WS02006238WS02006235 CONDUIT    797.67     0  01:08      2.32    1.78    1.00
  WS02006239WS02006238 CONDUIT    792.86     0  01:08      2.60    2.54    1.00
  WS02006240WS02006239 CONDUIT    818.30     0  01:09      2.31    2.58    1.00
  WS02006242WS02006240 CONDUIT    572.01     0  01:09      1.50    2.27    1.00
  WS02006243WS02006242 CONDUIT    401.09     0  03:53      1.38    0.86    1.00
  WS02006245WS02006243 CONDUIT    495.21     0  01:09      1.47    1.46    1.00
  WS02006247WS02006245 CONDUIT    519.71     0  01:09      1.41    4.12    1.00
  WS02006248WS02006247 CONDUIT    526.67     0  01:09      1.38    1.15    1.00
  WS02006249WS02006248 CONDUIT    552.44     0  01:09      1.44    3.03    1.00
  WS02006251WS02006249 CONDUIT   1411.09     0  02:17      3.67    4.07    1.00
  WS02006252WS02006251 CONDUIT    420.21     0  02:02     24.89    1.54    1.00
  WS02006253WS02006251 CONDUIT   1945.05     0  02:24      5.05    5.83    1.00
  WS02006256WS02006235 CONDUIT    288.93     0  00:00      4.23    3.06    1.00
  WS02006280WS02006229 CONDUIT   2330.27     0  03:01      5.33    0.50    1.00
  WS02006284WS02006280 CONDUIT   2328.11     0  03:01      3.37    0.97    1.00
  WS02006287WS02006284 CONDUIT   2433.55     0  01:08      3.12    1.13    1.00
  YS02001580YS02001583 CONDUIT    209.29     0  01:08      0.99    0.81    1.00
  YS02001583YS02001586 CONDUIT    219.28     0  01:08      1.02    0.33    1.00
  YS02001586YS02001590 CONDUIT    317.98     0  02:45      1.35    0.56    1.00
  YS02001590YS02001593 CONDUIT    318.15     0  03:15      1.14    2.00    1.00
  YS02001593YS02001596 CONDUIT    318.12     0  01:17      1.80    0.50    1.00
  YS02001596YS02001600 CONDUIT    318.22     0  03:15      1.34    0.62    1.00
  YS02001600YS02001601 CONDUIT    318.00     0  03:00      1.12    0.55    1.00
  YS02001601YS02001602 CONDUIT    610.32     0  01:08      2.16    2.20    1.00
  YS02001602YS02001605 CONDUIT    610.59     0  01:08      2.16   12.92    1.00
  YS02001605YS02001607 CONDUIT    610.29     0  01:08      2.16    3.35    1.00
  YS02001607YS02001610 CONDUIT    623.58     0  01:08      0.98    0.59    1.00
  YS02001610YS02001613 CONDUIT    619.82     0  02:55      0.86    0.71    1.00
  YS02001613YS02001616 CONDUIT    619.59     0  02:55      0.89    0.53    1.00
  YS02001616YS02001619 CONDUIT    619.89     0  02:55      0.93    1.08    1.00
  YS02001619YS02001622 CONDUIT   1053.97     0  02:58      1.91    1.55    1.00
  YS02001622YS02001625 CONDUIT   1053.71     0  02:56      1.34    0.56    1.00
  YS02001625YS02001629 CONDUIT    832.08     0  01:10      1.11    0.40    1.00
  YS02001629YS02163301 CONDUIT   1138.95     0  02:14      1.45    1.40    1.00
  YS02001633YS02163601 CONDUIT   1362.61     0  01:10      1.73    1.43    1.00
  YS02001641YS02001644 CONDUIT   1363.27     0  01:10      1.74    4.41    1.00
  YS02001644YS02001647 CONDUIT   1855.22     0  01:10      2.36    1.09    1.00
  YS02001647YS02001649 CONDUIT   1849.29     0  01:11      2.35    0.98    1.00
  YS02001649YS02001757 CONDUIT   2185.28     0  01:11      2.78    1.33    1.00
  YS02001652YS02001649 CONDUIT   2429.28     0  02:01      3.09    1.20    1.00
  YS02001655YS02001652 CONDUIT   2429.25     0  02:14      3.09    1.18    1.00
  YS02001658YS02001655 CONDUIT   2731.29     0  02:14      3.48    1.16    1.00
  YS02001661YS02001658 CONDUIT   2783.77     0  02:03      3.54    1.09    1.00
  YS02001664YS02001661 CONDUIT   2783.75     0  02:13      3.54    0.87    1.00
  YS02001745YS02001748 CONDUIT   3122.08     0  02:20      3.98    1.20    1.00
  YS02001748YS02001751 CONDUIT   2354.16     0  02:14      3.00    1.19    1.00
  YS02001751YS02001754 CONDUIT   2354.40     0  02:14      3.00    1.13    1.00
  YS02001754YS02001757 CONDUIT   2354.49     0  02:15      3.00    0.95    1.00
  YS02001757CaochengTiaoxuchi CONDUIT   3447.55     0  01:15      4.51    1.49    1.00
  YS02001759YS02001757 CONDUIT   1454.20     0  02:00      1.85    1.03    1.00
  YS02001762YS02001759 CONDUIT    811.64     0  01:15      1.03    0.94    1.00
  YS02001765YS02001762 CONDUIT    811.71     0  01:16      1.03    0.76    1.00
  YS02001767YS02001765 CONDUIT    811.84     0  01:16      1.03    1.02    1.00
  YS02001770YS02001767 CONDUIT    811.23     0  01:16      1.03    3.21    1.00
  YS02001774YS02001770 CONDUIT    852.08     0  01:43      1.08    0.54    1.00
  YS02001779YS02001774 CONDUIT    851.74     0  02:45      1.08    0.43    1.00
  YS02001783YS02001784 CONDUIT   1321.53     0  02:05      2.63    1.82    1.00
  YS02001784YS02001785 CONDUIT   1322.61     0  02:12      2.63    3.08    1.00
  YS02001786YS02001788 CONDUIT   1322.60     0  02:04      2.74    2.55    0.92
  YS02001788YS02001790 CONDUIT   1328.38     0  02:03      2.89    0.98    0.87
  YS02001790YS02001791 CONDUIT   1368.67     0  02:03      3.52    1.49    0.72
  YS02001791YS02001793 CONDUIT   1356.01     0  02:16      6.88    0.58    0.45
  YS02001793JiankangQianchi CONDUIT   1357.35     0  02:16      2.70    0.11    0.65
  YS02001882YS02001884 CONDUIT    157.22     0  01:09      0.48    0.18    1.00
  YS02001884YS02001887 CONDUIT    247.87     0  01:09      0.44    0.33    1.00
  YS02001887YS02001890 CONDUIT   2052.03     0  02:08      2.61    3.51    1.00
  YS02001890YS02001895 CONDUIT    559.06     0  01:10      0.71    0.26    1.00
  YS02001895YS02001898 CONDUIT    564.92     0  01:10      0.79    0.98    1.00
  YS02001898YS02001901 CONDUIT    571.85     0  01:10      0.73    0.37    1.00
  YS02001901YS02001904 CONDUIT    575.10     0  01:10      0.73    0.89    1.00
  YS02001904YS02001907 CONDUIT    577.47     0  01:10      0.74    0.20    1.00
  YS02001907YS02006553 CONDUIT   2161.01     0  02:12      2.40    2.54    1.00
  YS02001910YS02001907 CONDUIT   1993.01     0  02:45      2.54    1.12    1.00
  YS02001915YS02001910 CONDUIT   1993.14     0  01:47      2.54    0.99    1.00
  YS02001918YS02001915 CONDUIT   1221.69     0  02:39      1.56    0.67    1.00
  YS02001920YS02001918 CONDUIT   1681.96     0  02:13      2.14    1.63    1.00
  YS02001923YS02001920 CONDUIT   1679.28     0  02:12      2.14    0.75    1.00
  YS02001926YS02001923 CONDUIT   1679.24     0  02:06      2.14    2.40    1.00
  YS02001929YS02001926 CONDUIT   1679.07     0  02:13      2.14    0.80    1.00
  YS02006553YS02006556 CONDUIT   2160.82     0  02:14      2.75    1.85    1.00
  YS02006556YS02006558 CONDUIT   2160.96     0  02:14      2.75    1.71    1.00
  YS02006558YS02006561 CONDUIT   1321.43     0  02:06      4.67    2.92    1.00
  YS02006561YS02001783 CONDUIT   1321.70     0  02:10      2.63    0.68    1.00
  YS02163301YS02001633 CONDUIT   1138.87     0  01:55      1.45    1.07    1.00
  YS02163601YS02164001 CONDUIT   1363.14     0  01:10      1.74    1.21    1.00
  YS02164001YS02001641 CONDUIT   1362.77     0  01:10      1.74    1.86    1.00
  YSB1154YSB6556       CONDUIT    725.69     0  01:58      1.89    1.30    1.00
  YSB1171HS02004479    CONDUIT    526.29     0  01:11      1.05    0.35    1.00
  YSB1174YSB1171       CONDUIT    750.69     0  02:30      1.95    1.15    1.00
  YSB6556YSB1171       CONDUIT    639.84     0  02:03      1.66    0.66    1.00
  CC-R1                PUMP       683.00     0  00:00              1.00
  CC-R2                PUMP       683.00     0  00:00              1.00
  CC-S1                PUMP       200.00     0  00:00              1.00
  CC-S2                PUMP       200.00     0  00:00              1.00
  JK-R1                PUMP      1000.00     0  00:00              1.00
  JK-R2                PUMP      1000.00     0  00:00              1.00
  JK-S                 PUMP       300.00     0  00:00              1.00
  
  
  ***************************
  Flow Classification Summary
  ***************************
  
  -------------------------------------------------------------------------------------
                      Adjusted    ---------- Fraction of Time in Flow Class ---------- 
                       /Actual         Up    Down  Sub   Sup   Up    Down  Norm  Inlet 
  Conduit               Length    Dry  Dry   Dry   Crit  Crit  Crit  Crit  Ltd   Ctrl  
  -------------------------------------------------------------------------------------
  HS02004478WS02006287    1.00   0.26  0.00  0.00  0.54  0.19  0.00  0.00  0.04  0.00
  HS02004479HS02004480    1.00   0.07  0.00  0.00  0.93  0.00  0.00  0.00  0.17  0.00
  HS02004480HS02004478    1.00   0.25  0.00  0.00  0.54  0.00  0.00  0.21  0.00  0.00
  HS02004770HS02004777    1.00   0.00  0.25  0.00  0.75  0.00  0.00  0.00  0.01  0.00
  HS02004777HS02004785    1.00   0.00  0.00  0.00  1.00  0.00  0.00  0.00  0.18  0.00
  HS02004785HS02004788    1.00   0.00  0.00  0.00  1.00  0.00  0.00  0.00  0.00  0.00
  HS02004788HS02004792    1.00   0.00  0.00  0.00  0.98  0.02  0.00  0.00  0.43  0.00
  HS02004792HS02004799    1.00   0.00  0.00  0.00  0.98  0.02  0.00  0.00  0.41  0.00
  HS02004799HS02004480    1.00   0.01  0.07  0.00  0.73  0.00  0.20  0.00  0.00  0.00
  HS02004802HS02004478    1.00   0.25  0.01  0.00  0.74  0.00  0.00  0.00  0.01  0.00
  HS02004807HS02004802    1.00   0.25  0.00  0.00  0.74  0.00  0.00  0.01  0.00  0.00
  HS02004817HS02004807    1.00   0.00  0.25  0.00  0.75  0.00  0.00  0.00  0.01  0.00
  HS02004817HS02004824    1.00   0.00  0.00  0.00  1.00  0.00  0.00  0.00  0.40  0.00
  HS02004824HS02004830    1.00   0.00  0.00  0.00  1.00  0.00  0.00  0.00  0.00  0.00
  HS02004830HS02004837    1.00   0.00  0.00  0.00  1.00  0.00  0.00  0.00  0.41  0.00
  HS02004837HS02004842    1.00   0.00  0.00  0.00  0.99  0.01  0.00  0.00  0.21  0.00
  HS02004842HS02004848    1.00   0.00  0.25  0.00  0.75  0.00  0.00  0.00  0.01  0.00
  HS02004848HS02004852    1.00   0.25  0.00  0.00  0.75  0.00  0.00  0.00  0.18  0.00
  HS02004852HS02004856    1.00   0.25  0.01  0.00  0.74  0.00  0.00  0.00  0.13  0.00
  HS02004856HS02004862    1.00   0.00  0.26  0.00  0.74  0.00  0.00  0.00  0.19  0.00
  HS02004862HS02004870    1.00   0.00  0.00  0.00  1.00  0.00  0.00  0.00  0.01  0.00
  HS02004870HS02004876    1.00   0.01  0.00  0.00  0.97  0.02  0.00  0.00  0.36  0.00
  HS02004876HS02004881    1.00   0.04  0.00  0.00  0.81  0.15  0.00  0.00  0.00  0.00
  HS02004881HS02006253    1.00   0.07  0.04  0.00  0.71  0.01  0.00  0.17  0.20  0.00
  HS02004901HS02004770    1.00   0.25  0.00  0.00  0.75  0.00  0.00  0.00  0.00  0.00
  WS02004401WS02004402    1.00   0.05  0.00  0.00  0.95  0.00  0.00  0.00  0.00  0.00
  WS02006109WS02006110    1.00   0.00  0.02  0.00  0.96  0.00  0.02  0.00  0.00  0.00
  WS02006110WS02006113    1.00   0.02  0.02  0.00  0.96  0.00  0.00  0.00  0.00  0.00
  WS02006111WS02006112    1.00   0.04  0.00  0.00  0.95  0.00  0.00  0.00  0.34  0.00
  WS02006112WS02006115    1.00   0.04  0.01  0.00  0.94  0.00  0.01  0.00  0.00  0.00
  WS02006113WS02006111    1.00   0.04  0.00  0.00  0.54  0.42  0.00  0.00  0.06  0.00
  WS02006115WS02006116    1.00   0.05  0.00  0.00  0.78  0.00  0.00  0.17  0.00  0.00
  WS02006116WS02004401    1.00   0.05  0.00  0.00  0.95  0.00  0.00  0.00  0.00  0.00
  WS02006228WS02006109    1.00   0.00  0.00  0.00  1.00  0.00  0.00  0.00  0.01  0.00
  WS02006229WS02006228    1.00   0.00  0.00  0.00  0.98  0.00  0.00  0.02  0.00  0.00
  WS02006230WS02006229    1.00   0.00  0.00  0.00  0.97  0.00  0.00  0.03  0.00  0.00
  WS02006231WS02006230    1.00   0.00  0.00  0.00  0.72  0.00  0.27  0.00  0.00  0.00
  WS02006232WS02006231    1.00   0.00  0.00  0.00  0.99  0.00  0.01  0.00  0.00  0.00
  WS02006234WS02006232    1.00   0.00  0.00  0.00  1.00  0.00  0.00  0.00  0.02  0.00
  WS02006235WS02006234    1.00   0.00  0.00  0.00  0.93  0.00  0.06  0.00  0.00  0.00
  WS02006238WS02006235    1.00   0.00  0.00  0.00  1.00  0.00  0.00  0.00  0.00  0.00
  WS02006239WS02006238    1.00   0.00  0.00  0.00  1.00  0.00  0.00  0.00  0.12  0.00
  WS02006240WS02006239    1.00   0.00  0.00  0.00  0.84  0.00  0.00  0.16  0.01  0.00
  WS02006242WS02006240    1.00   0.01  0.00  0.00  0.99  0.00  0.01  0.00  0.00  0.00
  WS02006243WS02006242    1.00   0.01  0.00  0.00  0.98  0.00  0.00  0.02  0.21  0.00
  WS02006245WS02006243    1.00   0.00  0.00  0.00  0.91  0.00  0.00  0.09  0.00  0.00
  WS02006247WS02006245    1.00   0.00  0.00  0.00  0.98  0.00  0.00  0.02  0.00  0.00
  WS02006248WS02006247    1.00   0.00  0.00  0.00  0.98  0.00  0.00  0.02  0.15  0.00
  WS02006249WS02006248    1.00   0.00  0.00  0.00  0.78  0.00  0.22  0.00  0.00  0.00
  WS02006251WS02006249    1.00   0.00  0.00  0.00  1.00  0.00  0.00  0.00  0.20  0.00
  WS02006252WS02006251    1.00   0.00  0.25  0.00  0.72  0.00  0.03  0.00  0.00  0.00
  WS02006253WS02006251    1.00   0.00  0.00  0.00  0.92  0.00  0.07  0.00  0.00  0.00
  WS02006256WS02006235    1.00   0.00  0.00  0.00  1.00  0.00  0.00  0.00  0.00  0.00
  WS02006280WS02006229    1.00   0.27  0.00  0.00  0.54  0.06  0.00  0.13  0.02  0.00
  WS02006284WS02006280    1.00   0.27  0.00  0.00  0.53  0.00  0.00  0.20  0.00  0.00
  WS02006287WS02006284    1.00   0.21  0.06  0.00  0.53  0.19  0.00  0.02  0.18  0.00
  YS02001580YS02001583    1.00   0.28  0.00  0.00  0.72  0.00  0.00  0.00  0.14  0.00
  YS02001583YS02001586    1.00   0.25  0.03  0.00  0.72  0.00  0.00  0.00  0.15  0.00
  YS02001586YS02001590    1.00   0.25  0.00  0.00  0.73  0.01  0.00  0.01  0.14  0.00
  YS02001590YS02001593    1.00   0.25  0.00  0.00  0.59  0.00  0.16  0.00  0.00  0.00
  YS02001593YS02001596    1.00   0.25  0.00  0.00  0.61  0.01  0.00  0.13  0.02  0.00
  YS02001596YS02001600    1.00   0.26  0.00  0.00  0.67  0.01  0.00  0.06  0.04  0.00
  YS02001600YS02001601    1.00   0.25  0.01  0.00  0.74  0.00  0.00  0.00  0.00  0.00
  YS02001601YS02001602    1.00   0.25  0.00  0.00  0.75  0.00  0.00  0.00  0.00  0.00
  YS02001602YS02001605    1.00   0.25  0.00  0.00  0.75  0.00  0.00  0.00  0.00  0.00
  YS02001605YS02001607    1.00   0.26  0.00  0.00  0.74  0.00  0.00  0.00  0.00  0.00
  YS02001607YS02001610    1.00   0.26  0.00  0.00  0.74  0.00  0.00  0.00  0.00  0.00
  YS02001610YS02001613    1.00   0.25  0.00  0.00  0.75  0.00  0.00  0.00  0.00  0.00
  YS02001613YS02001616    1.00   0.25  0.00  0.00  0.75  0.00  0.00  0.00  0.00  0.00
  YS02001616YS02001619    1.00   0.25  0.00  0.00  0.75  0.00  0.00  0.00  0.00  0.00
  YS02001619YS02001622    1.00   0.25  0.00  0.00  0.74  0.00  0.00  0.00  0.00  0.00
  YS02001622YS02001625    1.00   0.25  0.00  0.00  0.74  0.01  0.00  0.00  0.01  0.00
  YS02001625YS02001629    1.00   0.25  0.02  0.00  0.67  0.00  0.06  0.00  0.00  0.00
  YS02001629YS02163301    1.00   0.26  0.00  0.00  0.74  0.00  0.00  0.00  0.00  0.00
  YS02001633YS02163601    1.00   0.00  0.01  0.00  0.99  0.00  0.00  0.00  0.24  0.00
  YS02001641YS02001644    1.00   0.00  0.01  0.00  0.99  0.00  0.00  0.00  0.00  0.00
  YS02001644YS02001647    1.00   0.00  0.26  0.00  0.74  0.00  0.00  0.00  0.00  0.00
  YS02001647YS02001649    1.00   0.00  0.26  0.00  0.74  0.00  0.00  0.00  0.04  0.00
  YS02001649YS02001757    1.00   0.00  0.00  0.00  1.00  0.00  0.00  0.00  0.26  0.00
  YS02001652YS02001649    1.00   0.00  0.00  0.00  0.99  0.01  0.00  0.00  0.23  0.00
  YS02001655YS02001652    1.00   0.00  0.00  0.00  0.71  0.00  0.00  0.29  0.03  0.00
  YS02001658YS02001655    1.00   0.00  0.26  0.00  0.69  0.06  0.00  0.00  0.07  0.00
  YS02001661YS02001658    1.00   0.26  0.00  0.00  0.63  0.11  0.00  0.00  0.13  0.00
  YS02001664YS02001661    1.00   0.25  0.00  0.00  0.70  0.05  0.00  0.00  0.26  0.00
  YS02001745YS02001748    1.00   0.00  0.00  0.00  0.63  0.00  0.00  0.37  0.06  0.00
  YS02001748YS02001751    1.00   0.00  0.00  0.00  0.96  0.04  0.00  0.00  0.30  0.00
  YS02001751YS02001754    1.00   0.00  0.00  0.00  0.71  0.00  0.00  0.29  0.03  0.00
  YS02001754YS02001757    1.00   0.00  0.00  0.00  0.99  0.01  0.00  0.00  0.27  0.00
  YS02001757CaochengTiaoxuchi    1.00   0.00  0.00  0.00  0.97  0.03  0.00  0.00  0.27  0.00
  YS02001759YS02001757    1.00   0.00  0.00  0.00  0.98  0.02  0.00  0.00  0.13  0.00
  YS02001762YS02001759    1.00   0.00  0.00  0.00  1.00  0.00  0.00  0.00  0.02  0.00
  YS02001765YS02001762    1.00   0.00  0.00  0.00  1.00  0.00  0.00  0.00  0.22  0.00
  YS02001767YS02001765    1.00   0.00  0.00  0.00  1.00  0.00  0.00  0.00  0.00  0.00
  YS02001770YS02001767    1.00   0.00  0.00  0.00  1.00  0.00  0.00  0.00  0.00  0.00
  YS02001774YS02001770    1.00   0.00  0.25  0.00  0.74  0.00  0.00  0.00  0.00  0.00
  YS02001779YS02001774    1.00   0.00  0.00  0.00  1.00  0.00  0.00  0.00  0.25  0.00
  YS02001783YS02001784    1.00   0.00  0.27  0.00  0.73  0.00  0.00  0.00  0.02  0.00
  YS02001784YS02001785    1.00   0.00  0.00  0.00  1.00  0.00  0.00  0.00  0.24  0.00
  YS02001786YS02001788    1.00   0.00  0.00  0.00  0.78  0.22  0.00  0.00  0.00  0.00
  YS02001788YS02001790    1.00   0.00  0.00  0.00  0.50  0.50  0.00  0.00  0.43  0.00
  YS02001790YS02001791    1.00   0.00  0.00  0.00  0.03  0.97  0.00  0.00  0.18  0.00
  YS02001791YS02001793    1.00   0.00  0.00  0.00  0.00  1.00  0.00  0.00  0.04  0.00
  YS02001793JiankangQianchi    1.00   0.00  0.00  0.00  0.59  0.41  0.00  0.00  0.89  0.00
  YS02001882YS02001884    1.00   0.26  0.00  0.00  0.74  0.00  0.00  0.00  0.00  0.00
  YS02001884YS02001887    1.00   0.12  0.11  0.00  0.77  0.00  0.00  0.00  0.00  0.00
  YS02001887YS02001890    1.00   0.00  0.00  0.00  0.94  0.00  0.06  0.00  0.00  0.00
  YS02001890YS02001895    1.00   0.01  0.26  0.00  0.74  0.00  0.00  0.00  0.00  0.00
  YS02001895YS02001898    1.00   0.26  0.00  0.00  0.72  0.00  0.01  0.00  0.00  0.00
  YS02001898YS02001901    1.00   0.26  0.00  0.00  0.73  0.00  0.00  0.00  0.00  0.00
  YS02001901YS02001904    1.00   0.27  0.00  0.00  0.73  0.00  0.00  0.00  0.00  0.00
  YS02001904YS02001907    1.00   0.01  0.26  0.00  0.74  0.00  0.00  0.00  0.00  0.00
  YS02001907YS02006553    1.00   0.01  0.04  0.00  0.95  0.00  0.00  0.00  0.01  0.00
  YS02001910YS02001907    1.00   0.00  0.00  0.00  0.94  0.01  0.00  0.05  0.20  0.00
  YS02001915YS02001910    1.00   0.00  0.00  0.00  0.96  0.04  0.00  0.00  0.21  0.00
  YS02001918YS02001915    1.00   0.00  0.01  0.00  0.96  0.03  0.00  0.00  0.21  0.00
  YS02001920YS02001918    1.00   0.00  0.01  0.00  0.99  0.00  0.00  0.00  0.00  0.00
  YS02001923YS02001920    1.00   0.00  0.00  0.00  1.00  0.00  0.00  0.00  0.49  0.00
  YS02001926YS02001923    1.00   0.00  0.15  0.00  0.49  0.00  0.36  0.00  0.00  0.00
  YS02001929YS02001926    1.00   0.00  0.25  0.00  0.74  0.01  0.00  0.00  0.26  0.00
  YS02006553YS02006556    1.00   0.03  0.00  0.00  0.97  0.00  0.00  0.00  0.06  0.00
  YS02006556YS02006558    1.00   0.00  0.01  0.00  0.99  0.00  0.00  0.00  0.00  0.00
  YS02006558YS02006561    1.00   0.27  0.00  0.00  0.49  0.24  0.00  0.00  0.19  0.00
  YS02006561YS02001783    1.00   0.27  0.00  0.00  0.52  0.21  0.00  0.00  0.18  0.00
  YS02163301YS02001633    1.00   0.00  0.26  0.00  0.74  0.00  0.00  0.00  0.00  0.00
  YS02163601YS02164001    1.00   0.00  0.16  0.00  0.84  0.00  0.00  0.00  0.00  0.00
  YS02164001YS02001641    1.00   0.02  0.15  0.00  0.84  0.00  0.00  0.00  0.09  0.00
  YSB1154YSB6556          1.00   0.25  0.00  0.00  0.75  0.00  0.00  0.00  0.01  0.00
  YSB1171HS02004479       1.00   0.08  0.00  0.00  0.89  0.00  0.00  0.03  0.16  0.00
  YSB1174YSB1171          1.00   0.10  0.09  0.00  0.81  0.00  0.00  0.00  0.00  0.00
  YSB6556YSB1171          1.00   0.08  0.17  0.00  0.75  0.00  0.00  0.00  0.00  0.00
  
  
  *************************
  Conduit Surcharge Summary
  *************************
  
  ----------------------------------------------------------------------------
                                                           Hours        Hours 
                         --------- Hours Full --------   Above Full   Capacity
  Conduit                Both Ends  Upstream  Dnstream   Normal Flow   Limited
  ----------------------------------------------------------------------------
  HS02004478WS02006287        1.99      1.99      2.07      0.01         0.01
  HS02004479HS02004480        2.11      2.11      2.12      0.01         0.01
  HS02004480HS02004478        2.06      2.11      2.06      2.51         2.06
  HS02004770HS02004777        2.06      2.06      2.06      0.05         0.03
  HS02004777HS02004785        2.02      2.02      2.06      0.01         0.01
  HS02004785HS02004788        2.01      2.02      2.01      2.00         0.62
  HS02004788HS02004792        2.01      2.01      2.09      0.01         0.01
  HS02004792HS02004799        2.09      2.09      2.14      0.01         0.02
  HS02004799HS02004480        2.11      2.11      2.14      2.17         0.01
  HS02004802HS02004478        2.06      2.06      2.11      1.74         0.01
  HS02004807HS02004802        2.09      2.10      2.11      1.89         1.89
  HS02004817HS02004807        2.10      2.10      2.32      0.01         0.01
  HS02004817HS02004824        2.02      2.02      2.32      0.01         0.01
  HS02004824HS02004830        1.99      1.99      2.02      0.55         0.56
  HS02004830HS02004837        1.96      1.96      1.99      0.39         0.40
  HS02004837HS02004842        1.96      1.96      2.06      0.01         0.01
  HS02004842HS02004848        1.95      1.95      2.06      0.01         0.01
  HS02004848HS02004852        1.95      1.95      1.97      0.03         0.15
  HS02004852HS02004856        1.97      1.97      1.98      0.78         0.65
  HS02004856HS02004862        1.94      1.94      1.97      0.01         0.01
  HS02004862HS02004870        1.97      1.97      1.98      0.50         0.49
  HS02004870HS02004876        1.98      1.98      2.03      0.01         0.01
  HS02004876HS02004881        2.02      2.03      2.02      2.48         2.02
  HS02004881HS02006253        2.02      2.02      2.84      0.01         0.01
  HS02004901HS02004770        2.05      2.05      2.06      1.18         0.01
  WS02004401WS02004402        0.01      0.85      0.01      2.36         0.01
  WS02006109WS02006110        2.88      2.88      2.89      2.88         0.01
  WS02006110WS02006113        2.14      2.14      2.88      1.53         0.01
  WS02006111WS02006112        2.05      2.05      2.87      0.01         0.01
  WS02006112WS02006115        1.89      1.89      2.43      1.30         0.01
  WS02006113WS02006111        2.06      2.14      2.06      2.36         2.03
  WS02006115WS02006116        1.43      1.90      1.43      2.41         1.43
  WS02006116WS02004401        0.85      1.82      0.85      2.48         0.85
  WS02006228WS02006109        2.88      2.89      2.88      2.99         2.88
  WS02006229WS02006228        2.89      2.89      2.89      2.93         2.89
  WS02006230WS02006229        2.89      2.89      2.89      3.20         0.72
  WS02006231WS02006230        2.87      2.88      2.87      3.10         2.16
  WS02006232WS02006231        2.87      2.87      2.87      0.15         0.27
  WS02006234WS02006232        2.86      2.86      2.87      0.04         0.01
  WS02006235WS02006234        2.86      2.86      2.86      3.03         2.14
  WS02006238WS02006235        2.86      2.86      2.86      0.02         0.67
  WS02006239WS02006238        2.85      2.85      2.86      2.59         0.40
  WS02006240WS02006239        2.85      2.85      2.85      2.58         0.39
  WS02006242WS02006240        2.85      2.85      2.85      2.80         2.13
  WS02006243WS02006242        2.85      2.85      2.85      0.01         0.01
  WS02006245WS02006243        2.84      2.84      2.85      0.43         0.34
  WS02006247WS02006245        2.84      2.84      2.84      2.91         0.66
  WS02006248WS02006247        2.84      2.84      2.84      0.01         0.01
  WS02006249WS02006248        2.84      2.84      2.85      0.76         0.01
  WS02006251WS02006249        2.85      2.86      2.85      2.98         2.85
  WS02006252WS02006251        2.98      2.98      2.98      2.65         1.62
  WS02006253WS02006251        2.86      2.86      2.87      2.18         0.01
  WS02006256WS02006235        3.08      3.08      3.52      0.31         0.01
  WS02006280WS02006229        2.12      2.12      2.15      0.01         0.01
  WS02006284WS02006280        2.08      2.08      2.11      0.01         0.01
  WS02006287WS02006284        2.04      2.05      2.09      1.92         1.92
  YS02001580YS02001583        2.17      2.17      2.18      0.01         0.01
  YS02001583YS02001586        2.17      2.17      2.25      0.01         0.01
  YS02001586YS02001590        2.25      2.25      2.30      0.01         0.01
  YS02001590YS02001593        2.30      2.30      2.31      2.38         0.01
  YS02001593YS02001596        2.31      2.31      2.36      0.01         0.01
  YS02001596YS02001600        2.38      2.38      2.44      0.01         0.01
  YS02001600YS02001601        2.48      2.48      2.63      0.01         0.01
  YS02001601YS02001602        2.58      2.58      2.65      2.40         0.01
  YS02001602YS02001605        2.56      2.56      2.58      2.95         0.01
  YS02001605YS02001607        2.55      2.56      2.56      2.52         2.48
  YS02001607YS02001610        2.29      2.29      2.31      0.01         0.01
  YS02001610YS02001613        2.29      2.29      2.31      0.01         0.01
  YS02001613YS02001616        2.26      2.26      2.29      0.01         0.01
  YS02001616YS02001619        2.25      2.25      2.26      1.55         1.29
  YS02001619YS02001622        2.25      2.25      2.26      2.22         2.12
  YS02001622YS02001625        2.26      2.26      2.39      0.01         0.01
  YS02001625YS02001629        2.22      2.22      2.39      0.01         0.01
  YS02001629YS02163301        2.41      2.41      2.42      1.14         0.04
  YS02001633YS02163601        2.44      2.44      2.48      0.05         0.08
  YS02001641YS02001644        2.44      2.44      2.44      2.69         2.40
  YS02001644YS02001647        2.30      2.30      2.44      0.03         0.01
  YS02001647YS02001649        2.30      2.30      2.42      0.01         0.01
  YS02001649YS02001757        2.42      2.42      2.50      0.09         0.06
  YS02001652YS02001649        2.28      2.28      2.42      0.78         0.78
  YS02001655YS02001652        2.11      2.11      2.25      0.76         0.77
  YS02001658YS02001655        1.89      1.89      2.11      0.68         0.68
  YS02001661YS02001658        1.55      1.55      1.89      0.64         0.64
  YS02001664YS02001661        1.05      1.05      1.68      0.01         0.01
  YS02001745YS02001748        1.08      1.08      1.81      0.37         0.37
  YS02001748YS02001751        1.90      1.90      2.06      0.48         0.48
  YS02001751YS02001754        2.06      2.06      2.21      0.46         0.46
  YS02001754YS02001757        2.25      2.25      2.50      0.01         0.01
  YS02001757CaochengTiaoxuchi        2.41      2.50      2.73      0.93         0.82
  YS02001759YS02001757        2.42      2.42      2.50      0.12         0.08
  YS02001762YS02001759        2.39      2.39      2.42      0.01         0.02
  YS02001765YS02001762        2.36      2.36      2.39      0.01         0.01
  YS02001767YS02001765        2.33      2.33      2.36      0.03         0.05
  YS02001770YS02001767        2.33      2.33      2.33      1.74         0.70
  YS02001774YS02001770        2.31      2.31      2.37      0.01         0.01
  YS02001779YS02001774        2.20      2.20      2.37      0.01         0.01
  YS02001783YS02001784        1.99      2.00      1.99      2.07         1.99
  YS02001784YS02001785        1.92      1.99      1.92      2.14         1.92
  YS02001786YS02001788        0.01      1.92      0.01      2.11         0.01
  YS02001790YS02001791        0.01      0.01      0.01      1.98         0.01
  YS02001793JiankangQianchi        0.01      0.01      3.71      0.01         0.01
  YS02001882YS02001884        1.97      1.97      1.98      0.01         0.01
  YS02001884YS02001887        1.99      1.99      2.00      0.01         0.01
  YS02001887YS02001890        2.00      2.00      2.01      1.74         0.01
  YS02001890YS02001895        1.96      1.96      2.02      0.01         0.01
  YS02001895YS02001898        1.96      1.96      1.96      0.01         0.01
  YS02001898YS02001901        1.97      1.97      1.99      0.01         0.01
  YS02001901YS02001904        1.98      1.98      1.99      0.01         0.01
  YS02001904YS02001907        1.98      1.98      2.11      0.01         0.01
  YS02001907YS02006553        2.15      2.15      2.17      0.90         0.90
  YS02001910YS02001907        2.02      2.02      2.10      1.35         1.36
  YS02001915YS02001910        1.97      1.97      2.02      0.01         0.07
  YS02001918YS02001915        1.92      1.92      1.97      0.01         0.01
  YS02001920YS02001918        1.92      1.92      1.93      0.90         0.01
  YS02001923YS02001920        1.89      1.89      1.93      0.01         0.01
  YS02001926YS02001923        1.71      1.71      1.75      1.22         0.01
  YS02001929YS02001926        1.41      1.41      1.75      0.01         0.01
  YS02006553YS02006556        2.06      2.06      2.11      0.79         0.79
  YS02006556YS02006558        2.09      2.09      2.11      0.77         0.01
  YS02006558YS02006561        1.94      2.05      1.94      2.13         1.94
  YS02006561YS02001783        1.89      1.89      2.00      0.01         0.01
  YS02163301YS02001633        2.42      2.42      2.46      0.95         0.01
  YS02163601YS02164001        2.43      2.43      2.48      0.03         0.01
  YS02164001YS02001641        2.43      2.43      2.44      1.41         1.37
  YSB1154YSB6556              2.13      2.13      2.17      1.25         0.01
  YSB1171HS02004479           2.09      2.09      2.17      0.01         0.01
  YSB1174YSB1171              2.15      2.15      2.25      0.89         0.89
  YSB6556YSB1171              2.13      2.13      2.31      0.01         0.01
  
  
  ***************
  Pumping Summary
  ***************
  
  ---------------------------------------------------------------------------------------------------------
                                                  Min       Avg       Max     Total     Power    % Time Off
                        Percent   Number of      Flow      Flow      Flow    Volume     Usage    Pump Curve
  Pump                 Utilized   Start-Ups       LPS       LPS       LPS  10^6 ltr     Kw-hr    Low   High
  ---------------------------------------------------------------------------------------------------------
  CC-R1                   70.30           2      0.00    683.00    683.00     6.914    140.06    0.0   62.4
  CC-R2                   68.43           2      0.00    683.00    683.00     6.730    136.64    0.0   64.1
  CC-S1                   72.85           2      0.00    200.00    200.00     2.098     11.96    0.0   55.6
  CC-S2                   71.63           2      0.00    200.00    200.00     2.063     11.64    0.0   56.5
  JK-R1                   47.79           5      0.00   1000.00   1000.00     6.881     62.63    0.0    0.0
  JK-R2                    0.33           1      0.00   1000.00   1000.00     0.047      0.36    0.0    0.0
  JK-S                    59.17           3      0.00    300.00    300.00     2.556     41.29    0.0    0.0
  

  Analysis begun on:  Tue Jun  9 17:05:09 2026
  Analysis ended on:  Tue Jun  9 17:05:09 2026
  Total elapsed time: < 1 sec