
  EPA STORM WATER MANAGEMENT MODEL - VERSION 5.2 (Build 5.2.4)
  PYSWMM TOOLKIT API - VERSION v1.0 (2026-02-26)
  ------------------------------------------------------------

  WARNING 03: negative offset ignored for Link YS02001904YS02001907
  
  ****************
  Analysis Options
  ****************
  Flow Units ............... LPS
  Process Models:
    Rainfall/Runoff ........ YES
    RDII ................... NO
    Snowmelt ............... NO
    Groundwater ............ NO
    Flow Routing ........... YES
    Ponding Allowed ........ NO
    Water Quality .......... NO
  Infiltration Method ...... HORTON
  Flow Routing Method ...... DYNWAVE
  Surcharge Method ......... EXTRAN
  Starting Date ............ 08/28/2015 08:00:00
  Ending Date .............. 08/28/2015 12:00:00
  Antecedent Dry Days ...... 8.0
  Report Time Step ......... 00:01:00
  Wet Time Step ............ 00:01:00
  Dry Time Step ............ 00:01:00
  Routing Time Step ........ 30.00 sec
  Variable Time Step ....... YES
  Maximum Trials ........... 8
  Number of Threads ........ 4
  Head Tolerance ........... 0.001500 m
  
  
  **************************        Volume         Depth
  Runoff Quantity Continuity     hectare-m            mm
  **************************     ---------       -------
  Total Precipitation ......        31.389       518.151
  Evaporation Loss .........         0.000         0.000
  Infiltration Loss ........         0.194         3.198
  Surface Runoff ...........        31.016       512.005
  Final Storage ............         0.187         3.088
  Continuity Error (%) .....        -0.027
  
  
  **************************        Volume        Volume
  Flow Routing Continuity        hectare-m      10^6 ltr
  **************************     ---------     ---------
  Dry Weather Inflow .......         0.026         0.261
  Wet Weather Inflow .......        31.014       310.146
  Groundwater Inflow .......         0.000         0.000
  RDII Inflow ..............         0.000         0.000
  External Inflow ..........         0.015         0.148
  External Outflow .........         3.472        34.721
  Flooding Loss ............        27.416       274.163
  Evaporation Loss .........         0.000         0.000
  Exfiltration Loss ........         0.000         0.000
  Initial Stored Volume ....         0.243         2.431
  Final Stored Volume ......         0.412         4.119
  Continuity Error (%) .....        -0.006
  
  
  *************************
  Highest Continuity Errors
  *************************
  Node YS02001884 (7.92%)
  Node YS02001583 (-5.62%)
  
  
  ***************************
  Time-Step Critical Elements
  ***************************
  Link YS02001791YS02001793 (47.11%)
  Link WS02006280WS02006229 (23.90%)
  Link WS02006238WS02006235 (12.57%)
  Link WS02006115WS02006116 (2.01%)
  Link YS02006556YS02006558 (1.52%)
  
  
  ********************************
  Highest Flow Instability Indexes
  ********************************
  Link WS02006238WS02006235 (61)
  Link YS02001602YS02001605 (61)
  Link YS02001605YS02001607 (61)
  Link WS02006229WS02006228 (58)
  Link WS02006280WS02006229 (58)
  
  
  *********************************
  Most Frequent Nonconverging Nodes
  *********************************
  Node CC-1 (23.54%)
  Node CC-2 (23.54%)
  Node JK-1 (23.54%)
  Node JK-2 (23.54%)
  Node WS02004402 (23.54%)
  
  
  *************************
  Routing Time Step Summary
  *************************
  Minimum Time Step           :     0.00 sec
  Average Time Step           :     2.13 sec
  Maximum Time Step           :     9.91 sec
  % of Time in Steady State   :     0.00
  Average Iterations per Step :     5.15
  % of Steps Not Converging   :    23.54
  Time Step Frequencies       :
     30.000 - 13.228 sec      :     0.00 %
     13.228 -  5.833 sec      :     3.81 %
      5.833 -  2.572 sec      :     5.01 %
      2.572 -  1.134 sec      :    82.63 %
      1.134 -  0.500 sec      :     8.55 %
  
  
  ***************************
  Subcatchment Runoff Summary
  ***************************
  
  ------------------------------------------------------------------------------------------------------------------------------
                            Total      Total      Total      Total     Imperv       Perv      Total       Total     Peak  Runoff
                           Precip      Runon       Evap      Infil     Runoff     Runoff     Runoff      Runoff   Runoff   Coeff
  Subcatchment                 mm         mm         mm         mm         mm         mm         mm    10^6 ltr      LPS
  ------------------------------------------------------------------------------------------------------------------------------
  sub0                     518.15       0.00       0.00       1.01     480.67      35.22     515.88        0.42   296.94   0.996
  sub1                     518.15       0.00       0.00       1.58     459.53      55.14     514.66        3.42  2320.81   0.993
  sub10                    518.15       0.00       0.00       1.15     475.08      40.15     515.24        5.68  3883.48   0.994
  sub11                    518.15       0.00       0.00       1.15     475.25      40.18     515.43        5.99  4158.59   0.995
  sub12                    518.15       0.00       0.00       1.87     449.60      65.29     514.89        4.50  3179.32   0.994
  sub14                    518.15       0.00       0.00       1.29     470.01      45.18     515.19        4.90  3380.34   0.994
  sub15                    518.15       0.00       0.00       4.31     361.52     149.52     511.04        8.79  5785.82   0.986
  sub16                    518.15       0.00       0.00       4.74     346.21     164.95     511.16        5.35  3645.40   0.987
  sub17                    518.15       0.00       0.00       4.60     351.36     159.92     511.27        4.39  2979.56   0.987
  sub2                     518.15       0.00       0.00       5.31     325.10     182.43     507.53        4.73  2855.91   0.980
  sub22                    518.15       0.00       0.00       6.18     294.46     213.60     508.06       32.09 20416.20   0.981
  sub23                    518.15       0.00       0.00       5.31     325.48     184.39     509.87       24.32 16009.10   0.984
  sub3                     518.15       0.00       0.00       5.31     324.76     180.65     505.41       11.38  6492.53   0.975
  sub4                     518.15       0.00       0.00       1.58     458.12      54.88     513.00       10.70  6542.39   0.990
  sub5                     518.15       0.00       0.00       1.01     480.18      35.14     515.32        5.84  3966.36   0.995
  sub60                    518.15       0.00       0.00       1.72     454.63      60.22     514.84        6.77  4708.34   0.994
  sub61                    518.15       0.00       0.00       2.44     428.83      85.22     514.05        9.43  6563.70   0.992
  sub62                    518.15       0.00       0.00       1.15     475.03      40.15     515.18       14.12  9602.49   0.994
  sub63                    518.15       0.00       0.00       4.17     366.81     144.90     511.71       11.62  7865.46   0.988
  sub64                    518.15       0.00       0.00       2.15     438.73      75.02     513.75       12.34  8207.63   0.992
  sub65                    518.15       0.00       0.00       1.87     448.89      65.02     513.91       14.15  9304.98   0.992
  sub66                    518.15       0.00       0.00       4.17     365.89     142.77     508.66       23.72 14052.19   0.982
  sub67                    518.15       0.00       0.00       1.15     475.41      40.22     515.63        9.59  6763.69   0.995
  sub68                    518.15       0.00       0.00       2.01     444.19      70.17     514.36       14.16  9725.87   0.993
  sub69                    518.15       0.00       0.00       2.15     439.67      75.52     515.19       19.07 12436.55   0.994
  sub7                     518.15       0.00       0.00       1.29     470.15      45.21     515.35        1.74  1213.06   0.995
  sub70                    518.15       0.00       0.00       4.88     340.74     166.65     507.39       14.66  8161.56   0.979
  sub71                    518.15       0.00       0.00       1.15     474.67      40.10     514.77       13.46  8889.32   0.993
  sub72                    518.15       0.00       0.00       1.01     479.32      35.06     514.38        7.07  4506.86   0.993
  sub8                     518.15       0.00       0.00       1.29     470.05      45.18     515.24        3.29  2278.36   0.994
  sub9                     518.15       0.00       0.00       1.29     470.03      45.18     515.21        2.48  1711.17   0.994
  
  
  ******************
  Node Depth Summary
  ******************
  
  ---------------------------------------------------------------------------------
                                 Average  Maximum  Maximum  Time of Max    Reported
                                   Depth    Depth      HGL   Occurrence   Max Depth
  Node                 Type       Meters   Meters   Meters  days hr:min      Meters
  ---------------------------------------------------------------------------------
  HS02004478           JUNCTION     0.92     1.63    10.86     0  01:55        1.60
  HS02004479           JUNCTION     1.02     1.85    11.05     0  01:55        1.85
  HS02004480           JUNCTION     0.99     1.81    11.05     0  01:14        1.81
  HS02004770           JUNCTION     0.88     1.42    11.25     0  01:13        1.42
  HS02004777           JUNCTION     0.91     1.48    11.28     0  01:13        1.48
  HS02004785           JUNCTION     0.81     1.49    11.39     0  01:13        1.49
  HS02004788           JUNCTION     0.79     1.42    11.32     0  01:13        1.42
  HS02004792           JUNCTION     0.95     1.60    11.12     0  01:13        1.60
  HS02004799           JUNCTION     1.10     1.76    10.97     0  01:14        1.76
  HS02004802           JUNCTION     1.07     1.92    11.05     0  01:14        1.92
  HS02004807           JUNCTION     1.11     1.92    11.09     0  01:18        1.92
  HS02004817           JUNCTION     1.47     2.44    11.29     0  01:18        2.44
  HS02004824           JUNCTION     1.05     2.01    11.41     0  01:17        2.01
  HS02004830           JUNCTION     1.04     2.03    11.50     0  01:17        2.03
  HS02004837           JUNCTION     0.98     2.04    11.62     0  01:18        2.04
  HS02004842           JUNCTION     1.25     2.22    11.49     0  01:17        2.22
  HS02004848           JUNCTION     0.98     2.07    11.67     0  01:18        2.07
  HS02004852           JUNCTION     1.00     2.12    11.63     0  01:18        2.12
  HS02004856           JUNCTION     1.04     2.07    11.50     0  01:17        2.07
  HS02004862           JUNCTION     1.01     2.00    11.38     0  01:18        2.00
  HS02004870           JUNCTION     1.02     2.10    11.39     0  01:55        2.10
  HS02004876           JUNCTION     1.11     2.26    11.29     0  01:55        2.26
  HS02004881           JUNCTION     0.97     2.15    11.18     0  01:55        2.15
  HS02004901           JUNCTION     0.87     1.42    11.28     0  01:13        1.42
  WS02004401           JUNCTION     0.71     1.19     7.19     0  02:08        1.19
  WS02006109           JUNCTION     1.90     2.64     9.26     0  01:14        2.64
  WS02006110           JUNCTION     1.62     2.76     9.34     0  01:55        2.76
  WS02006111           JUNCTION     0.85     1.99     8.70     0  02:08        1.99
  WS02006112           JUNCTION     1.37     2.68     8.56     0  01:55        2.68
  WS02006113           JUNCTION     1.03     2.73     9.62     0  01:55        2.73
  WS02006115           JUNCTION     0.92     1.88     8.02     0  02:08        1.88
  WS02006116           JUNCTION     0.86     1.61     7.65     0  02:07        1.60
  WS02006228           JUNCTION     2.16     3.03     9.68     0  01:55        3.03
  WS02006229           JUNCTION     2.29     3.25     9.94     0  01:55        3.23
  WS02006230           JUNCTION     1.99     2.65     9.39     0  01:12        2.65
  WS02006231           JUNCTION     1.60     2.24     9.36     0  01:14        2.24
  WS02006232           JUNCTION     1.65     2.18     9.22     0  01:11        2.18
  WS02006234           JUNCTION     1.49     1.96     9.12     0  01:11        1.96
  WS02006235           JUNCTION     1.47     2.00     9.16     0  01:11        2.00
  WS02006238           JUNCTION     1.49     2.15     9.29     0  01:55        2.15
  WS02006239           JUNCTION     1.38     2.03     9.24     0  01:11        2.03
  WS02006240           JUNCTION     1.27     2.10     9.39     0  01:11        2.10
  WS02006242           JUNCTION     1.26     1.55     8.82     0  01:11        1.55
  WS02006243           JUNCTION     1.11     1.48     8.90     0  01:12        1.48
  WS02006245           JUNCTION     1.04     1.56     9.04     0  01:12        1.56
  WS02006247           JUNCTION     1.03     1.47     8.97     0  01:12        1.47
  WS02006248           JUNCTION     0.94     1.10     8.69     0  01:12        1.10
  WS02006249           JUNCTION     0.94     1.09     8.69     0  01:12        1.09
  WS02006251           JUNCTION     1.55     2.21     9.88     0  01:59        2.21
  WS02006252           JUNCTION     1.06     1.50     9.74     0  00:00        1.50
  WS02006253           JUNCTION     2.06     3.50    11.14     0  02:27        3.43
  WS02006256           JUNCTION     1.92     2.35     9.28     0  00:00        2.35
  WS02006280           JUNCTION     1.05     1.83    10.10     0  01:55        1.83
  WS02006284           JUNCTION     1.27     2.08    10.48     0  01:55        2.08
  WS02006287           JUNCTION     1.04     1.89    10.84     0  01:55        1.89
  YS02001580           JUNCTION     0.47     1.05     9.59     0  01:13        1.05
  YS02001583           JUNCTION     0.50     1.00     9.50     0  01:13        0.82
  YS02001586           JUNCTION     0.74     1.13     9.30     0  01:13        1.13
  YS02001590           JUNCTION     0.93     1.40     9.26     0  01:14        1.40
  YS02001593           JUNCTION     0.84     1.46     9.32     0  01:14        1.29
  YS02001596           JUNCTION     1.11     1.80     9.22     0  01:14        1.80
  YS02001600           JUNCTION     1.28     1.87     9.00     0  01:14        1.87
  YS02001601           JUNCTION     1.49     2.06     8.90     0  01:13        2.06
  YS02001602           JUNCTION     1.34     1.87     8.77     0  01:14        1.87
  YS02001605           JUNCTION     1.26     1.78     8.68     0  01:14        1.78
  YS02001607           JUNCTION     1.16     1.68     8.53     0  01:14        1.68
  YS02001610           JUNCTION     1.20     1.68     8.48     0  01:14        1.68
  YS02001613           JUNCTION     1.17     1.69     8.53     0  01:22        1.69
  YS02001616           JUNCTION     1.11     1.61     8.52     0  01:14        1.61
  YS02001619           JUNCTION     1.10     1.61     8.54     0  01:40        1.61
  YS02001622           JUNCTION     1.08     1.62     8.52     0  01:55        1.62
  YS02001625           JUNCTION     1.29     1.78     8.38     0  01:14        1.78
  YS02001629           JUNCTION     1.31     1.85     8.40     0  01:14        1.85
  YS02001633           JUNCTION     1.42     2.08     8.53     0  01:54        2.08
  YS02001641           JUNCTION     1.37     2.05     8.49     0  01:55        1.99
  YS02001644           JUNCTION     1.35     1.92     8.35     0  01:21        1.92
  YS02001647           JUNCTION     1.17     1.80     8.41     0  02:59        1.80
  YS02001649           JUNCTION     1.35     2.05     8.44     0  01:50        2.05
  YS02001652           JUNCTION     1.23     2.16     8.76     0  01:55        2.15
  YS02001655           JUNCTION     1.09     2.20     9.05     0  01:55        2.20
  YS02001658           JUNCTION     0.94     2.30     9.44     0  01:55        2.30
  YS02001661           JUNCTION     0.84     2.46     9.86     0  01:55        2.46
  YS02001664           JUNCTION     0.56     2.31    10.23     0  01:55        2.31
  YS02001745           JUNCTION     0.62     2.35     9.87     0  02:08        2.35
  YS02001748           JUNCTION     0.88     2.27     9.35     0  01:55        2.27
  YS02001751           JUNCTION     0.99     2.20     9.08     0  02:07        2.19
  YS02001754           JUNCTION     1.18     2.18     8.79     0  02:07        2.18
  YS02001757           JUNCTION     1.44     2.21     8.47     0  01:55        2.21
  YS02001759           JUNCTION     1.38     2.21     8.57     0  01:55        2.21
  YS02001762           JUNCTION     1.35     2.15     8.55     0  01:55        2.15
  YS02001765           JUNCTION     1.31     2.10     8.55     0  02:27        2.09
  YS02001767           JUNCTION     1.28     2.03     8.52     0  02:27        2.02
  YS02001770           JUNCTION     1.28     1.95     8.44     0  01:42        1.95
  YS02001774           JUNCTION     1.33     2.05     8.47     0  01:55        2.05
  YS02001779           JUNCTION     1.08     1.68     8.37     0  01:18        1.68
  YS02001783           JUNCTION     0.79     1.62     7.76     0  01:55        1.62
  YS02001784           JUNCTION     0.73     1.40     7.47     0  01:55        1.31
  YS02001786           JUNCTION     0.58     1.00     7.03     0  02:02        0.99
  YS02001788           JUNCTION     0.41     0.69     6.67     0  02:02        0.68
  YS02001790           JUNCTION     0.46     0.78     6.42     0  02:02        0.77
  YS02001791           JUNCTION     0.28     0.48     5.95     0  02:02        0.46
  YS02001793           JUNCTION     0.15     0.31     5.14     0  02:35        0.28
  YS02001882           JUNCTION     1.01     1.83     8.55     0  01:59        1.83
  YS02001884           JUNCTION     1.10     1.93     8.55     0  01:55        1.93
  YS02001887           JUNCTION     1.17     2.00     8.54     0  01:55        2.00
  YS02001890           JUNCTION     1.16     1.81     8.32     0  01:17        1.81
  YS02001895           JUNCTION     0.93     1.75     8.50     0  01:55        1.75
  YS02001898           JUNCTION     0.94     1.64     8.38     0  01:55        1.60
  YS02001901           JUNCTION     1.04     1.75     8.36     0  02:44        1.75
  YS02001904           JUNCTION     1.01     1.67     8.30     0  01:55        1.67
  YS02001907           JUNCTION     1.31     1.96     8.25     0  01:17        1.96
  YS02001910           JUNCTION     1.21     2.10     8.61     0  02:27        2.10
  YS02001915           JUNCTION     1.10     2.00     8.72     0  01:46        2.00
  YS02001918           JUNCTION     0.88     1.81     8.88     0  01:17        1.81
  YS02001920           JUNCTION     0.98     2.14     9.15     0  01:17        2.14
  YS02001923           JUNCTION     0.81     2.03     9.29     0  01:17        2.03
  YS02001926           JUNCTION     0.77     1.90     9.35     0  01:18        1.90
  YS02001929           JUNCTION     0.63     1.78     9.47     0  01:18        1.78
  YS02006553           JUNCTION     1.34     2.13     8.42     0  02:08        2.13
  YS02006556           JUNCTION     1.34     2.39     8.70     0  01:55        2.39
  YS02006558           JUNCTION     1.40     2.50     8.77     0  01:55        2.50
  YS02006561           JUNCTION     0.57     1.21     7.87     0  02:02        1.20
  YS02163301           JUNCTION     1.35     2.03     8.55     0  02:27        1.95
  YS02163601           JUNCTION     1.44     2.08     8.48     0  01:55        2.08
  YS02164001           JUNCTION     1.36     2.07     8.53     0  02:27        2.07
  YSB1154              JUNCTION     1.24     2.10    11.16     0  01:51        2.10
  YSB1171              JUNCTION     1.29     1.95    10.85     0  01:13        1.95
  YSB1174              JUNCTION     1.15     1.95    11.06     0  01:55        1.95
  YSB6556              JUNCTION     1.09     1.80    10.97     0  01:48        1.80
  CC-1                 OUTFALL      0.00     0.00     0.00     0  00:00        0.00
  CC-2                 OUTFALL      0.00     0.00     0.00     0  00:00        0.00
  JK-1                 OUTFALL      0.00     0.00     0.00     0  00:00        0.00
  JK-2                 OUTFALL      0.00     0.00     0.00     0  00:00        0.00
  WS02004402           OUTFALL      0.59     0.88     6.84     0  02:08        0.88
  CC-storage           STORAGE      1.66     2.30     7.80     0  02:19        2.30
  JK-storage           STORAGE      2.15     4.24     5.04     0  02:59        4.22
  
  
  *******************
  Node Inflow Summary
  *******************
  
  -------------------------------------------------------------------------------------------------
                                  Maximum  Maximum                  Lateral       Total        Flow
                                  Lateral    Total  Time of Max      Inflow      Inflow     Balance
                                   Inflow   Inflow   Occurrence      Volume      Volume       Error
  Node                 Type           LPS      LPS  days hr:min    10^6 ltr    10^6 ltr     Percent
  -------------------------------------------------------------------------------------------------
  HS02004478           JUNCTION      0.00  2365.47     0  01:55           0        17.7      -0.003
  HS02004479           JUNCTION      0.00   413.51     0  01:18           0        1.68       0.114
  HS02004480           JUNCTION      0.00  2131.84     0  01:14           0        11.1       0.034
  HS02004770           JUNCTION  16009.10 16904.78     0  02:13        24.3        27.9       0.019
  HS02004777           JUNCTION      0.03   743.25     0  01:13    0.000432        2.64       0.315
  HS02004785           JUNCTION      0.15   744.40     0  01:12     0.00216        2.64       0.133
  HS02004788           JUNCTION   5787.49  5787.49     0  02:13        8.81        10.5       0.015
  HS02004792           JUNCTION  20416.48 21506.19     0  02:13        32.1        38.8       0.006
  HS02004799           JUNCTION   3380.34  4522.44     0  02:13         4.9        14.3       0.059
  HS02004802           JUNCTION      0.00  1261.74     0  01:55           0         7.8       0.070
  HS02004807           JUNCTION   4158.59  5355.14     0  02:13        5.99          13       0.055
  HS02004817           JUNCTION      0.60  1224.11     0  01:55     0.00864        7.06       0.279
  HS02004824           JUNCTION   6542.44  7414.67     0  02:13        10.7        14.3       0.009
  HS02004830           JUNCTION      0.15  1048.39     0  02:18     0.00216        3.78       0.068
  HS02004837           JUNCTION   3889.83  3889.83     0  02:13        5.77        6.27       0.028
  HS02004842           JUNCTION      0.00  2354.69     0  02:18           0        5.99       0.241
  HS02004848           JUNCTION   6492.53  6492.53     0  02:13        11.4        11.9       0.008
  HS02004852           JUNCTION      0.00   985.63     0  01:17           0        4.95       0.024
  HS02004856           JUNCTION   1711.17  2591.90     0  02:13        2.48        7.42       0.039
  HS02004862           JUNCTION   2856.11  4004.45     0  02:13        4.73        10.9       0.018
  HS02004870           JUNCTION   2278.36  2278.36     0  02:13        3.29        8.32       0.017
  HS02004876           JUNCTION   2320.81  3246.79     0  02:13        3.42        11.1       0.036
  HS02004881           JUNCTION   1213.06  2203.62     0  02:13        1.74        11.2       0.008
  HS02004901           JUNCTION   3645.40  3645.40     0  02:13        5.35        5.35       0.044
  WS02004401           JUNCTION      0.00  2427.25     0  02:09           0        15.2       0.094
  WS02006109           JUNCTION      1.23  1339.61     0  02:59      0.0177          12       0.175
  WS02006110           JUNCTION      0.00  1339.81     0  02:59           0        11.4       0.203
  WS02006111           JUNCTION      0.00  1342.33     0  02:59           0        11.3       0.051
  WS02006112           JUNCTION   2979.56  3817.03     0  02:13        4.39        15.7       0.235
  WS02006113           JUNCTION      0.00  1340.18     0  02:59           0        11.3       0.131
  WS02006115           JUNCTION      0.00  2427.16     0  02:08           0        15.2       0.137
  WS02006116           JUNCTION      0.00  2427.51     0  02:09           0        15.2       0.062
  WS02006228           JUNCTION      0.00  1348.26     0  01:14           0          12       0.110
  WS02006229           JUNCTION      0.00  2327.73     0  02:50           0        18.9       0.077
  WS02006230           JUNCTION     10.28  1028.33     0  02:27       0.148        8.25       0.262
  WS02006231           JUNCTION      0.00   632.58     0  01:10           0        4.55       0.283
  WS02006232           JUNCTION      0.00   614.99     0  01:10           0        4.54       0.392
  WS02006234           JUNCTION      0.00   615.06     0  01:10           0        4.52       0.327
  WS02006235           JUNCTION      0.00   593.92     0  01:11           0        4.28       0.186
  WS02006238           JUNCTION      0.00   587.09     0  01:11           0        4.06       0.159
  WS02006239           JUNCTION      0.00   677.40     0  01:11           0        4.05       0.287
  WS02006240           JUNCTION      0.00   857.11     0  01:11           0        4.03       0.324
  WS02006242           JUNCTION      0.00   793.05     0  01:11           0        4.04       0.414
  WS02006243           JUNCTION      0.00   742.17     0  01:12           0        3.05       0.525
  WS02006245           JUNCTION      0.00   420.20     0  01:12           0        3.07       0.593
  WS02006247           JUNCTION      0.00   511.93     0  01:12           0        3.08       0.379
  WS02006248           JUNCTION      0.00   601.96     0  01:12           0        3.53       0.317
  WS02006249           JUNCTION      0.00  1411.09     0  02:04           0        11.3       0.172
  WS02006251           JUNCTION      0.08  1921.35     0  02:12     0.00111        13.1       0.137
  WS02006252           JUNCTION      0.00   820.21     0  02:03           0        5.79       0.002
  WS02006253           JUNCTION    296.94  1921.30     0  02:12       0.418        11.5       0.128
  WS02006256           JUNCTION      0.00   300.00     0  00:00           0        2.55      -0.051
  WS02006280           JUNCTION      0.00  2326.48     0  02:50           0        17.7      -0.006
  WS02006284           JUNCTION      0.10  2355.57     0  01:55     0.00138        17.7       0.021
  WS02006287           JUNCTION      0.00  2388.10     0  01:55           0        17.7       0.046
  YS02001580           JUNCTION      0.00   127.92     0  01:13           0     0.00462      -1.002
  YS02001583           JUNCTION      0.00   176.69     0  01:13           0      0.0156      -5.318
  YS02001586           JUNCTION   8161.56  8161.56     0  02:14        14.7        14.7       0.018
  YS02001590           JUNCTION      0.00   330.35     0  01:55           0        2.66       0.101
  YS02001593           JUNCTION      0.00   331.81     0  01:55           0        2.65       0.048
  YS02001596           JUNCTION      0.00   319.09     0  01:55           0        2.65       0.033
  YS02001600           JUNCTION      0.00   319.27     0  01:55           0        2.65       0.037
  YS02001601           JUNCTION  12436.55 12754.05     0  02:13        19.1        21.7       0.024
  YS02001602           JUNCTION      0.00   584.34     0  01:13           0        3.56       0.140
  YS02001605           JUNCTION      0.00   584.21     0  01:13           0        3.13       0.224
  YS02001607           JUNCTION      0.00   584.23     0  01:13           0        3.12       0.276
  YS02001610           JUNCTION      0.00   958.98     0  01:56           0        6.17       0.139
  YS02001613           JUNCTION      0.00   623.32     0  01:55           0        4.03       0.188
  YS02001616           JUNCTION      0.00   676.31     0  01:55           0        4.03       0.132
  YS02001619           JUNCTION  14052.19 14052.19     0  02:13        23.7        24.7       0.017
  YS02001622           JUNCTION      0.00  1091.52     0  01:55           0        8.08       0.065
  YS02001625           JUNCTION      0.00  1505.50     0  02:37           0        10.4       0.243
  YS02001629           JUNCTION      0.00  1138.94     0  02:01           0        6.02       0.022
  YS02001633           JUNCTION   9305.18  9305.18     0  02:13        14.2          16       0.081
  YS02001641           JUNCTION      0.00  1353.06     0  01:16           0        6.49       0.139
  YS02001644           JUNCTION   8207.66  9959.31     0  02:13        12.3        21.4       0.048
  YS02001647           JUNCTION      0.00  1759.62     0  01:17           0        6.56       0.066
  YS02001649           JUNCTION      0.00  3237.05     0  02:08           0        13.7       0.041
  YS02001652           JUNCTION      0.00  2429.25     0  02:05           0        8.57      -0.029
  YS02001655           JUNCTION      0.15  2731.44     0  02:17     0.00222        8.98       0.029
  YS02001658           JUNCTION      0.00  2783.77     0  02:06           0        9.05      -0.007
  YS02001661           JUNCTION      0.00  2783.75     0  02:08           0        9.04      -0.025
  YS02001664           JUNCTION   7865.46  7865.46     0  02:13        11.6        11.6      -0.000
  YS02001745           JUNCTION   4708.34  4708.34     0  02:13        6.76        6.76       0.020
  YS02001748           JUNCTION      0.04  3122.13     0  02:16    0.000648        6.39      -0.041
  YS02001751           JUNCTION      0.01  2353.75     0  02:08    0.000158        5.95       0.032
  YS02001754           JUNCTION      0.26  2354.45     0  02:08     0.00374        5.95      -0.030
  YS02001757           JUNCTION      0.00  3761.26     0  02:08           0        20.5       0.154
  YS02001759           JUNCTION   6563.74  6563.74     0  02:13        9.43        11.4       0.033
  YS02001762           JUNCTION      0.00   723.33     0  01:27           0        3.41       0.089
  YS02001765           JUNCTION      0.00   723.23     0  01:27           0        3.41       0.078
  YS02001767           JUNCTION      0.54   723.95     0  01:27      0.0077        3.42       0.092
  YS02001770           JUNCTION   9602.64 10324.82     0  02:13        14.1        15.6       0.017
  YS02001774           JUNCTION      0.00   852.11     0  02:37           0        3.78       0.099
  YS02001779           JUNCTION      0.01   851.79     0  02:35     7.2e-05        3.74      -0.004
  YS02001783           JUNCTION      0.00  1322.02     0  02:03           0        8.83       0.011
  YS02001784           JUNCTION      1.06  1322.95     0  02:03      0.0153        8.84       0.024
  YS02001786           JUNCTION      0.06  1323.03     0  02:03    0.000811        8.84       0.021
  YS02001788           JUNCTION      0.07  1322.89     0  02:03     0.00102        8.84       0.012
  YS02001790           JUNCTION      0.15  1344.19     0  02:02     0.00223        8.84       0.042
  YS02001791           JUNCTION      0.00  1407.09     0  02:02           0        8.84      -0.047
  YS02001793           JUNCTION      0.00  1437.52     0  02:02           0        8.84       0.008
  YS02001882           JUNCTION      0.00    65.43     0  01:11           0      0.0144      11.213
  YS02001884           JUNCTION      0.00   126.55     0  01:11           0      0.0504       8.607
  YS02001887           JUNCTION   6764.14  6764.14     0  02:13         9.6        9.63       0.064
  YS02001890           JUNCTION      0.00  2052.03     0  02:10           0        7.11       0.097
  YS02001895           JUNCTION      0.00   552.89     0  02:27           0        3.36       0.116
  YS02001898           JUNCTION      0.00   551.64     0  01:55           0        3.36       0.027
  YS02001901           JUNCTION      0.00   518.36     0  01:34           0        3.36       0.150
  YS02001904           JUNCTION      0.00   521.06     0  02:44           0        3.38       0.124
  YS02001907           JUNCTION      0.00  4670.37     0  02:05           0        18.2       0.114
  YS02001910           JUNCTION      0.00  1993.18     0  02:35           0        10.6       0.087
  YS02001915           JUNCTION   8889.34 10111.03     0  02:13        13.5        18.4       0.018
  YS02001918           JUNCTION      0.00  1681.46     0  02:08           0        5.64       0.007
  YS02001920           JUNCTION      2.87  1681.88     0  02:08      0.0413        5.62       0.019
  YS02001923           JUNCTION      0.04  1679.00     0  02:08    0.000543        5.56      -0.007
  YS02001926           JUNCTION      0.05  1678.55     0  02:08    0.000752        5.54       0.011
  YS02001929           JUNCTION   4506.86  4506.86     0  02:13        7.07        7.07      -0.004
  YS02006553           JUNCTION      0.00  2160.70     0  02:06           0        6.36       0.218
  YS02006556           JUNCTION      0.00  2160.88     0  02:06           0        6.38       0.144
  YS02006558           JUNCTION   9726.75  9726.75     0  02:13        14.2        16.2       0.025
  YS02006561           JUNCTION      0.00  1321.71     0  02:03           0        8.83       0.004
  YS02163301           JUNCTION      0.00  1146.08     0  02:27           0        6.03       0.140
  YS02163601           JUNCTION      0.11  1354.93     0  01:16     0.00158        6.49       0.217
  YS02164001           JUNCTION      0.00  1354.09     0  01:16           0        6.49       0.128
  YSB1154              JUNCTION   3966.36  3966.36     0  02:13        5.84        5.84       0.040
  YSB1171              JUNCTION      0.00  1629.91     0  02:25           0        7.36       0.116
  YSB1174              JUNCTION   3179.32  3179.32     0  02:13         4.5         4.5       0.047
  YSB6556              JUNCTION      0.00   725.69     0  02:05           0        3.41       0.081
  CC-1                 OUTFALL       0.00   683.00     0  00:00           0        6.72       0.000
  CC-2                 OUTFALL       0.00   683.00     0  00:00           0        6.52       0.000
  JK-1                 OUTFALL       0.00  1000.00     0  00:00           0        6.27       0.000
  JK-2                 OUTFALL       0.00  1000.00     0  00:00           0      0.0483       0.000
  WS02004402           OUTFALL       0.00  2427.28     0  02:08           0        15.2       0.000
  CC-storage           STORAGE       0.00  3089.67     0  01:25           0        20.9       0.013
  JK-storage           STORAGE       0.00  1437.44     0  02:02           0        8.99      -0.046
  
  
  **********************
  Node Surcharge Summary
  **********************
  
  Surcharging occurs when water rises above the top of the highest conduit.
  ---------------------------------------------------------------------
                                               Max. Height   Min. Depth
                                   Hours       Above Crown    Below Rim
  Node                 Type      Surcharged         Meters       Meters
  ---------------------------------------------------------------------
  HS02004478           JUNCTION        1.86          0.713        0.227
  HS02004479           JUNCTION        1.96          1.050        0.000
  HS02004480           JUNCTION        1.99          1.100        0.000
  HS02004770           JUNCTION        1.92          0.720        0.000
  HS02004777           JUNCTION        1.92          0.780        0.000
  HS02004785           JUNCTION        1.88          0.790        0.000
  HS02004788           JUNCTION        1.87          0.720        0.000
  HS02004792           JUNCTION        1.96          0.900        0.000
  HS02004799           JUNCTION        2.03          1.060        0.000
  HS02004802           JUNCTION        1.97          1.210        0.000
  HS02004807           JUNCTION        1.95          1.220        0.000
  HS02004817           JUNCTION        2.21          1.740        0.000
  HS02004824           JUNCTION        1.88          1.310        0.000
  HS02004830           JUNCTION        1.85          1.330        0.000
  HS02004837           JUNCTION        1.83          1.340        0.000
  HS02004842           JUNCTION        1.91          1.520        0.000
  HS02004848           JUNCTION        1.78          1.370        0.000
  HS02004852           JUNCTION        1.79          1.420        0.000
  HS02004856           JUNCTION        1.79          1.300        0.000
  HS02004862           JUNCTION        1.82          1.300        0.000
  HS02004870           JUNCTION        1.83          1.400        0.000
  HS02004876           JUNCTION        1.88          1.560        0.000
  HS02004881           JUNCTION        1.87          1.450        0.000
  HS02004901           JUNCTION        1.91          0.720        0.000
  WS02004401           JUNCTION        0.53          0.194        1.466
  WS02006109           JUNCTION        2.85          1.820        0.000
  WS02006110           JUNCTION        2.84          1.850        0.000
  WS02006111           JUNCTION        1.93          1.183        0.687
  WS02006112           JUNCTION        2.39          1.680        0.000
  WS02006113           JUNCTION        2.02          1.930        0.000
  WS02006115           JUNCTION        1.71          0.874        1.376
  WS02006116           JUNCTION        0.97          0.548        1.742
  WS02006228           JUNCTION        2.85          2.200        0.000
  WS02006229           JUNCTION        2.03          1.070        0.000
  WS02006230           JUNCTION        2.71          1.570        0.000
  WS02006231           JUNCTION        2.83          1.530        0.000
  WS02006232           JUNCTION        2.83          1.480        0.000
  WS02006234           JUNCTION        2.81          1.240        0.000
  WS02006235           JUNCTION        2.81          1.290        0.000
  WS02006238           JUNCTION        2.81          1.430        0.000
  WS02006239           JUNCTION        2.81          1.290        0.000
  WS02006240           JUNCTION        2.81          1.390        0.000
  WS02006242           JUNCTION        2.80          0.820        0.000
  WS02006243           JUNCTION        2.80          0.770        0.000
  WS02006245           JUNCTION        2.80          0.850        0.000
  WS02006247           JUNCTION        2.80          0.760        0.000
  WS02006248           JUNCTION        2.79          0.380        0.000
  WS02006249           JUNCTION        2.79          0.390        0.000
  WS02006251           JUNCTION        2.79          1.180        0.000
  WS02006252           JUNCTION        2.92          1.100        0.000
  WS02006253           JUNCTION        2.79          2.456        0.024
  WS02006256           JUNCTION        3.48          2.050        0.000
  WS02006280           JUNCTION        1.99          0.780        0.000
  WS02006284           JUNCTION        1.95          0.800        0.000
  WS02006287           JUNCTION        1.91          0.890        0.000
  YS02001580           JUNCTION        2.01          0.450        0.000
  YS02001583           JUNCTION        2.01          0.364        0.136
  YS02001586           JUNCTION        2.08          0.510        0.000
  YS02001590           JUNCTION        2.14          0.750        0.000
  YS02001593           JUNCTION        2.15          0.840        0.000
  YS02001596           JUNCTION        2.22          1.070        0.000
  YS02001600           JUNCTION        2.31          1.190        0.000
  YS02001601           JUNCTION        2.51          1.440        0.000
  YS02001602           JUNCTION        2.47          1.270        0.000
  YS02001605           JUNCTION        2.44          1.180        0.000
  YS02001607           JUNCTION        2.15          0.680        0.000
  YS02001610           JUNCTION        2.17          0.680        0.000
  YS02001613           JUNCTION        2.15          0.694        0.006
  YS02001616           JUNCTION        2.12          0.610        0.000
  YS02001619           JUNCTION        2.11          0.610        0.000
  YS02001622           JUNCTION        2.11          0.620        0.000
  YS02001625           JUNCTION        2.26          0.780        0.000
  YS02001629           JUNCTION        2.08          0.470        0.000
  YS02001633           JUNCTION        2.32          1.060        0.000
  YS02001641           JUNCTION        2.31          1.055        0.045
  YS02001644           JUNCTION        2.31          0.920        0.000
  YS02001647           JUNCTION        2.13          0.802        0.098
  YS02001649           JUNCTION        2.27          1.050        0.000
  YS02001652           JUNCTION        2.09          1.130        0.000
  YS02001655           JUNCTION        1.94          1.200        0.000
  YS02001658           JUNCTION        1.70          1.300        0.000
  YS02001661           JUNCTION        1.10          1.390        0.000
  YS02001664           JUNCTION        0.68          1.310        0.000
  YS02001745           JUNCTION        0.72          1.350        0.000
  YS02001748           JUNCTION        1.60          1.190        0.000
  YS02001751           JUNCTION        1.86          1.197        0.003
  YS02001754           JUNCTION        2.04          1.135        0.015
  YS02001757           JUNCTION        2.34          1.210        0.000
  YS02001759           JUNCTION        2.26          1.210        0.000
  YS02001762           JUNCTION        2.24          1.150        0.000
  YS02001765           JUNCTION        2.20          1.100        0.000
  YS02001767           JUNCTION        2.17          1.030        0.000
  YS02001770           JUNCTION        2.15          0.920        0.000
  YS02001774           JUNCTION        2.22          1.050        0.000
  YS02001779           JUNCTION        2.03          0.680        0.000
  YS02001783           JUNCTION        1.88          0.822        0.778
  YS02001784           JUNCTION        1.86          0.604        0.886
  YS02001786           JUNCTION        1.78          0.197        1.233
  YS02001882           JUNCTION        1.85          0.830        0.000
  YS02001884           JUNCTION        1.85          0.870        0.000
  YS02001887           JUNCTION        1.87          0.950        0.000
  YS02001890           JUNCTION        1.89          0.760        0.000
  YS02001895           JUNCTION        1.84          0.750        0.000
  YS02001898           JUNCTION        1.83          0.615        0.125
  YS02001901           JUNCTION        1.86          0.748        0.122
  YS02001904           JUNCTION        1.86          0.671        0.179
  YS02001907           JUNCTION        2.00          0.950        0.000
  YS02001910           JUNCTION        1.90          1.100        0.000
  YS02001915           JUNCTION        1.84          1.000        0.000
  YS02001918           JUNCTION        1.78          0.810        0.000
  YS02001920           JUNCTION        1.79          1.140        0.000
  YS02001923           JUNCTION        1.22          0.820        0.000
  YS02001926           JUNCTION        1.29          0.900        0.000
  YS02001929           JUNCTION        0.95          0.780        0.000
  YS02006553           JUNCTION        2.00          1.135        0.055
  YS02006556           JUNCTION        1.95          1.350        0.000
  YS02006558           JUNCTION        1.94          1.400        0.000
  YS02006561           JUNCTION        1.75          0.406        0.744
  YS02163301           JUNCTION        2.30          1.030        0.000
  YS02163601           JUNCTION        2.36          1.080        0.000
  YS02164001           JUNCTION        2.31          1.071        0.029
  YSB1154              JUNCTION        2.07          1.400        0.000
  YSB1171              JUNCTION        2.07          1.100        0.000
  YSB1174              JUNCTION        2.05          1.250        0.000
  YSB6556              JUNCTION        2.02          1.100        0.000
  
  
  *********************
  Node Flooding Summary
  *********************
  
  Flooding refers to all water that overflows a node, whether it ponds or not.
  --------------------------------------------------------------------------
                                                             Total   Maximum
                                 Maximum   Time of Max       Flood    Ponded
                        Hours       Rate    Occurrence      Volume     Depth
  Node                 Flooded       LPS   days hr:min    10^6 ltr    Meters
  --------------------------------------------------------------------------
  HS02004479              0.01      0.93      0  01:55       0.000     0.000
  HS02004480              0.01    111.80      0  01:14       0.000     0.000
  HS02004770              1.84  16893.42      0  02:13      26.202     0.000
  HS02004777              0.01     29.80      0  01:13       0.000     0.000
  HS02004785              0.01    100.63      0  01:13       0.000     0.000
  HS02004788              0.51   4267.65      0  02:13       2.789     0.000
  HS02004792              1.78  20348.65      0  02:13      29.399     0.000
  HS02004799              1.54   3215.05      0  02:13       3.680     0.000
  HS02004802              0.01      0.43      0  01:14       0.000     0.000
  HS02004807              1.30   4120.78      0  02:13       5.122     0.000
  HS02004817              0.01     41.10      0  01:55       0.000     0.000
  HS02004824              1.17   6217.66      0  02:13       7.106     0.000
  HS02004830              0.25    176.16      0  02:18       0.134     0.000
  HS02004837              0.19   1754.16      0  02:13       0.569     0.000
  HS02004842              1.15   2354.69      0  02:18       5.165     0.000
  HS02004848              0.47   4341.21      0  02:13       3.012     0.000
  HS02004852              0.01     26.03      0  02:27       0.000     0.000
  HS02004856              0.62   1587.95      0  02:13       1.359     0.000
  HS02004862              1.08   4003.51      0  02:13       5.877     0.000
  HS02004870              0.30   1205.81      0  02:13       0.484     0.000
  HS02004876              0.50   2254.56      0  02:13       1.634     0.000
  HS02004881              0.15    579.55      0  02:13       0.154     0.000
  HS02004901              0.92   3173.51      0  02:13       2.780     0.000
  WS02006109              0.79    449.92      0  02:10       0.614     0.000
  WS02006110              0.01      0.14      0  01:55       0.000     0.000
  WS02006112              0.20   1388.50      0  02:13       0.469     0.000
  WS02006113              0.01      0.35      0  01:55       0.000     0.000
  WS02006228              0.01     23.74      0  01:55       0.000     0.000
  WS02006229              0.01     55.84      0  01:55       0.000     0.000
  WS02006230              1.94    576.02      0  02:27       3.607     0.000
  WS02006231              0.01     11.88      0  01:55       0.000     0.000
  WS02006232              0.41     48.49      0  01:55       0.002     0.000
  WS02006234              2.00    129.79      0  01:55       0.890     0.000
  WS02006235              0.01     68.48      0  01:11       0.000     0.000
  WS02006238              0.01      0.49      0  01:55       0.000     0.000
  WS02006239              0.01    333.98      0  01:11       0.001     0.000
  WS02006240              0.01    704.83      0  01:11       0.002     0.000
  WS02006242              2.03    767.35      0  01:11       0.993     0.000
  WS02006243              0.01    704.86      0  01:12       0.004     0.000
  WS02006245              0.01    374.20      0  01:12       0.001     0.000
  WS02006247              0.01    509.51      0  01:12       0.002     0.000
  WS02006248              2.11    583.95      0  01:12       2.492     0.000
  WS02006249              2.79   1350.24      0  02:02       9.795     0.000
  WS02006251              0.36     90.03      0  02:12       0.070     0.000
  WS02006252              1.82    820.21      0  02:05       4.169     0.000
  WS02006256              2.36    294.07      0  01:15       1.674     0.000
  WS02006280              0.01      1.71      0  01:55       0.000     0.000
  WS02006284              0.01      0.49      0  02:27       0.000     0.000
  WS02006287              0.01      1.12      0  01:55       0.000     0.000
  YS02001580              0.01     98.26      0  01:13       0.000     0.000
  YS02001586              1.91   7843.96      0  02:14      11.997     0.000
  YS02001590              0.01     21.38      0  01:14       0.000     0.000
  YS02001593              0.01     21.77      0  01:14       0.000     0.000
  YS02001596              0.01     12.91      0  01:14       0.000     0.000
  YS02001600              0.01     16.40      0  01:14       0.000     0.000
  YS02001601              2.01  12348.57      0  02:13      18.158     0.000
  YS02001602              1.98     66.18      0  01:55       0.429     0.000
  YS02001605              0.01      8.77      0  01:55       0.000     0.000
  YS02001607              0.01     35.72      0  01:55       0.000     0.000
  YS02001610              1.91    958.49      0  01:55       5.189     0.000
  YS02001616              0.25     60.36      0  01:55       0.003     0.000
  YS02001619              1.10  12380.44      0  02:13      13.530     0.000
  YS02001622              0.01     43.72      0  01:55       0.000     0.000
  YS02001625              1.90   1505.27      0  02:37       8.517     0.000
  YS02001629              1.14    686.80      0  02:01       1.923     0.000
  YS02001633              0.59   7256.03      0  02:13       5.245     0.000
  YS02001644              1.63   9953.00      0  02:13      17.480     0.000
  YS02001649              0.67   2390.03      0  02:08       4.129     0.000
  YS02001652              0.01     98.36      0  01:55       0.000     0.000
  YS02001655              0.40    303.22      0  02:08       0.406     0.000
  YS02001658              0.35     52.16      0  02:06       0.064     0.000
  YS02001664              0.35   5077.37      0  02:13       2.572     0.000
  YS02001745              0.13   1583.86      0  02:13       0.371     0.000
  YS02001748              0.21    768.81      0  02:16       0.448     0.000
  YS02001757              0.33    760.73      0  02:18       0.610     0.000
  YS02001759              0.36   4431.51      0  02:13       2.279     0.000
  YS02001762              0.06     51.18      0  02:27       0.001     0.000
  YS02001765              0.01     37.98      0  02:27       0.000     0.000
  YS02001767              0.01     24.23      0  02:27       0.000     0.000
  YS02001770              0.94   9466.95      0  02:13       9.890     0.000
  YS02001774              0.01      1.21      0  02:27       0.000     0.000
  YS02001779              1.57    851.49      0  02:35       3.720     0.000
  YS02001882              0.01     23.26      0  02:27       0.000     0.000
  YS02001884              0.01     15.85      0  02:27       0.000     0.000
  YS02001887              0.39   4710.03      0  02:13       2.476     0.000
  YS02001890              1.35   1536.78      0  02:07       3.741     0.000
  YS02001895              0.01      0.90      0  01:55       0.000     0.000
  YS02001907              1.74   4669.76      0  02:04      16.153     0.000
  YS02001910              0.01      0.81      0  02:27       0.000     0.000
  YS02001915              0.83   8112.37      0  02:13       7.773     0.000
  YS02001918              0.50    459.71      0  02:07       0.684     0.000
  YS02001920              0.01     37.61      0  01:18       0.000     0.000
  YS02001923              0.01    102.84      0  01:17       0.000     0.000
  YS02001926              0.01     52.75      0  01:18       0.000     0.000
  YS02001929              0.36   2826.95      0  02:13       1.539     0.000
  YS02006556              0.01      1.40      0  01:55       0.000     0.000
  YS02006558              0.33   6240.71      0  02:13       3.053     0.000
  YS02163301              0.01      8.43      0  02:27       0.000     0.000
  YS02163601              0.01     64.22      0  01:55       0.001     0.000
  YSB1154                 0.66   3237.87      0  02:13       2.430     0.000
  YSB1171                 1.72   1629.51      0  02:06       6.834     0.000
  YSB1174                 0.50   2427.71      0  02:13       1.495     0.000
  YSB6556                 0.74     85.86      0  02:01       0.214     0.000
  CC-storage              0.70    410.41      0  02:19       0.550     0.000
  
  
  **********************
  Storage Volume Summary
  **********************
  
  ------------------------------------------------------------------------------------------------
                         Average    Avg   Evap  Exfil     Maximum    Max    Time of Max    Maximum
                          Volume   Pcnt   Pcnt   Pcnt      Volume   Pcnt     Occurrence    Outflow
  Storage Unit           1000 m³   Full   Loss   Loss     1000 m³   Full    days hr:min        LPS
  ------------------------------------------------------------------------------------------------
  CC-storage               4.631   72.2    0.0    0.0       6.410  100.0       0  02:19    1783.54
  JK-storage               0.108   37.1    0.0    0.0       0.213   73.1       0  02:59    2300.00
  
  
  ***********************
  Outfall Loading Summary
  ***********************
  
  -----------------------------------------------------------
                         Flow       Avg       Max       Total
                         Freq      Flow      Flow      Volume
  Outfall Node           Pcnt       LPS       LPS    10^6 ltr
  -----------------------------------------------------------
  CC-1                  79.41    683.00    683.00       6.719
  CC-2                  77.24    683.00    683.00       6.524
  JK-1                  51.32   1000.00   1000.00       6.270
  JK-2                   0.31   1000.00   1000.00       0.048
  WS02004402            95.14   1302.84   2427.28      15.160
  -----------------------------------------------------------
  System                60.69   4668.84   4793.28      34.721
  
  
  ********************
  Link Flow Summary
  ********************
  
  -----------------------------------------------------------------------------
                                 Maximum  Time of Max   Maximum    Max/    Max/
                                  |Flow|   Occurrence   |Veloc|    Full    Full
  Link                 Type          LPS  days hr:min     m/sec    Flow   Depth
  -----------------------------------------------------------------------------
  HS02004478WS02006287 CONDUIT   2388.10     0  01:55      2.92    0.67    1.00
  HS02004479HS02004480 CONDUIT    414.23     0  01:18      0.64    0.40    1.00
  HS02004480HS02004478 CONDUIT   2128.27     0  01:14      3.04    8.96    1.00
  HS02004770HS02004777 CONDUIT    743.22     0  01:13      1.06    1.36    1.00
  HS02004777HS02004785 CONDUIT    744.25     0  01:12      1.13    0.92    1.00
  HS02004785HS02004788 CONDUIT    663.17     0  01:13      1.37    5.00    1.00
  HS02004788HS02004792 CONDUIT   1089.71     0  02:25      1.56    0.72    1.00
  HS02004792HS02004799 CONDUIT   1617.61     0  01:14      2.31    0.99    1.00
  HS02004799HS02004480 CONDUIT   1779.39     0  01:14      2.54    2.25    1.00
  HS02004802HS02004478 CONDUIT   1267.89     0  01:55      1.81    1.12    1.00
  HS02004807HS02004802 CONDUIT   1261.74     0  01:55      1.80    2.41    1.00
  HS02004817HS02004807 CONDUIT   1197.04     0  02:38      1.71    0.71    1.00
  HS02004817HS02004824 CONDUIT   1223.51     0  01:55      1.75    0.55    1.00
  HS02004824HS02004830 CONDUIT    872.23     0  02:19      1.25    1.14    1.00
  HS02004830HS02004837 CONDUIT   1048.24     0  02:18      1.50    1.04    1.00
  HS02004837HS02004842 CONDUIT   1084.84     0  02:18      1.55    0.65    1.00
  HS02004842HS02004848 CONDUIT   1269.84     0  02:27      1.81    0.74    1.00
  HS02004848HS02004852 CONDUIT    985.63     0  01:17      1.56    1.11    1.00
  HS02004852HS02004856 CONDUIT    968.91     0  01:17      1.43    1.11    1.00
  HS02004856HS02004862 CONDUIT   1035.36     0  01:16      1.68    1.03    1.00
  HS02004862HS02004870 CONDUIT   1122.17     0  02:46      1.91    1.21    1.00
  HS02004870HS02004876 CONDUIT   1302.56     0  02:46      2.04    0.86    1.00
  HS02004876HS02004881 CONDUIT   1521.00     0  02:43      2.54   16.18    1.00
  HS02004881HS02006253 CONDUIT   1743.43     0  02:25      2.90    0.34    1.00
  HS02004901HS02004770 CONDUIT    469.86     0  02:15      0.67    1.00    1.00
  WS02004401WS02004402 CONDUIT   2427.28     0  02:08      3.17    2.91    0.94
  WS02006109WS02006110 CONDUIT   1339.81     0  02:59      2.67    2.58    1.00
  WS02006110WS02006113 CONDUIT   1340.18     0  02:59      2.67    1.22    1.00
  WS02006111WS02006112 CONDUIT   1349.57     0  02:59      2.68    0.64    1.00
  WS02006112WS02006115 CONDUIT   2427.16     0  02:08      3.09    1.43    1.00
  WS02006113WS02006111 CONDUIT   1342.33     0  02:59      2.81    1.61    1.00
  WS02006115WS02006116 CONDUIT   2427.51     0  02:09      3.09    3.12    1.00
  WS02006116WS02004401 CONDUIT   2427.25     0  02:09      3.09    3.35    1.00
  WS02006228WS02006109 CONDUIT   1338.38     0  02:59      2.66    5.85    1.00
  WS02006229WS02006228 CONDUIT   1348.26     0  01:14      2.68    4.47    1.00
  WS02006230WS02006229 CONDUIT   1018.05     0  02:27      2.65   22.66    1.00
  WS02006231WS02006230 CONDUIT    632.58     0  01:10      1.65    9.60    1.00
  WS02006232WS02006231 CONDUIT    614.99     0  01:10      1.60    1.29    1.00
  WS02006234WS02006232 CONDUIT    615.06     0  01:10      1.79    1.24    1.00
  WS02006235WS02006234 CONDUIT    593.92     0  01:11      1.57    6.27    1.00
  WS02006238WS02006235 CONDUIT    587.09     0  01:11      1.86    1.31    1.00
  WS02006239WS02006238 CONDUIT    629.37     0  01:11      1.85    2.01    1.00
  WS02006240WS02006239 CONDUIT    636.99     0  01:11      1.73    2.00    1.00
  WS02006242WS02006240 CONDUIT    498.34     0  01:11      1.30    1.98    1.00
  WS02006243WS02006242 CONDUIT    451.49     0  01:12      1.34    0.96    1.00
  WS02006245WS02006243 CONDUIT    415.96     0  04:00      1.39    1.23    1.00
  WS02006247WS02006245 CONDUIT    415.95     0  04:00      1.37    3.30    1.00
  WS02006248WS02006247 CONDUIT    418.13     0  01:12      1.38    0.91    1.00
  WS02006249WS02006248 CONDUIT    457.81     0  01:12      1.38    2.51    1.00
  WS02006251WS02006249 CONDUIT   1411.09     0  02:04      3.67    4.07    1.00
  WS02006252WS02006251 CONDUIT    420.21     0  02:04     24.89    1.54    1.00
  WS02006253WS02006251 CONDUIT   1921.28     0  02:12      4.99    5.76    1.00
  WS02006256WS02006235 CONDUIT    288.93     0  00:00      4.23    3.06    1.00
  WS02006280WS02006229 CONDUIT   2327.73     0  02:50      5.25    0.50    1.00
  WS02006284WS02006280 CONDUIT   2326.48     0  02:50      3.32    0.97    1.00
  WS02006287WS02006284 CONDUIT   2355.47     0  01:55      3.09    1.09    1.00
  YS02001580YS02001583 CONDUIT    127.92     0  01:13      0.73    0.50    1.00
  YS02001583YS02001586 CONDUIT    152.93     0  01:13      0.70    0.23    1.00
  YS02001586YS02001590 CONDUIT    330.35     0  01:55      1.29    0.58    1.00
  YS02001590YS02001593 CONDUIT    331.81     0  01:55      1.17    2.08    1.00
  YS02001593YS02001596 CONDUIT    319.09     0  01:55      1.75    0.50    1.00
  YS02001596YS02001600 CONDUIT    319.27     0  01:55      1.30    0.62    1.00
  YS02001600YS02001601 CONDUIT    318.70     0  02:27      1.13    0.55    1.00
  YS02001601YS02001602 CONDUIT    584.34     0  01:13      2.07    2.11    1.00
  YS02001602YS02001605 CONDUIT    584.21     0  01:13      2.07   12.36    1.00
  YS02001605YS02001607 CONDUIT    584.23     0  01:13      2.07    3.20    1.00
  YS02001607YS02001610 CONDUIT    558.58     0  01:13      0.79    0.53    1.00
  YS02001610YS02001613 CONDUIT    623.23     0  01:55      0.79    0.72    1.00
  YS02001613YS02001616 CONDUIT    623.32     0  01:55      0.81    0.53    1.00
  YS02001616YS02001619 CONDUIT    676.31     0  01:55      0.86    1.17    1.00
  YS02001619YS02001622 CONDUIT   1091.52     0  01:55      1.74    1.61    1.00
  YS02001622YS02001625 CONDUIT   1053.71     0  02:37      1.34    0.56    1.00
  YS02001625YS02001629 CONDUIT    927.02     0  01:14      1.18    0.44    1.00
  YS02001629YS02163301 CONDUIT   1138.94     0  02:01      1.45    1.40    1.00
  YS02001633YS02163601 CONDUIT   1354.82     0  01:16      1.73    1.42    1.00
  YS02001641YS02001644 CONDUIT   1353.44     0  01:16      1.72    4.38    1.00
  YS02001644YS02001647 CONDUIT   1759.62     0  01:17      2.28    1.03    1.00
  YS02001647YS02001649 CONDUIT   1774.99     0  01:17      2.36    0.94    1.00
  YS02001649YS02001757 CONDUIT   2041.51     0  01:16      2.63    1.24    1.00
  YS02001652YS02001649 CONDUIT   2429.27     0  02:08      3.09    1.20    1.00
  YS02001655YS02001652 CONDUIT   2429.25     0  02:05      3.09    1.18    1.00
  YS02001658YS02001655 CONDUIT   2731.29     0  02:17      3.48    1.16    1.00
  YS02001661YS02001658 CONDUIT   2783.77     0  02:06      3.54    1.09    1.00
  YS02001664YS02001661 CONDUIT   2783.75     0  02:08      3.54    0.87    1.00
  YS02001745YS02001748 CONDUIT   3122.08     0  02:16      3.98    1.20    1.00
  YS02001748YS02001751 CONDUIT   2353.74     0  02:08      3.00    1.19    1.00
  YS02001751YS02001754 CONDUIT   2354.19     0  02:08      3.00    1.13    1.00
  YS02001754YS02001757 CONDUIT   2353.98     0  02:08      3.00    0.95    1.00
  YS02001757CaochengTiaoxuchi CONDUIT   3089.67     0  01:25      3.93    1.34    1.00
  YS02001759YS02001757 CONDUIT   1461.93     0  02:01      1.86    1.04    1.00
  YS02001762YS02001759 CONDUIT    724.84     0  01:27      0.92    0.84    1.00
  YS02001765YS02001762 CONDUIT    723.33     0  01:27      0.92    0.68    1.00
  YS02001767YS02001765 CONDUIT    723.23     0  01:27      0.95    0.91    1.00
  YS02001770YS02001767 CONDUIT    723.42     0  01:27      0.95    2.87    1.00
  YS02001774YS02001770 CONDUIT    852.11     0  02:37      1.08    0.54    1.00
  YS02001779YS02001774 CONDUIT    851.79     0  02:35      1.08    0.43    1.00
  YS02001783YS02001784 CONDUIT   1321.89     0  02:03      2.63    1.82    1.00
  YS02001784YS02001785 CONDUIT   1322.97     0  02:03      2.63    3.08    1.00
  YS02001786YS02001788 CONDUIT   1322.82     0  02:03      2.74    2.55    0.93
  YS02001788YS02001790 CONDUIT   1344.04     0  02:02      2.92    0.99    0.91
  YS02001790YS02001791 CONDUIT   1407.09     0  02:02      3.54    1.53    0.76
  YS02001791YS02001793 CONDUIT   1437.52     0  02:02      7.02    0.62    0.45
  YS02001793JiankangQianchi CONDUIT   1437.44     0  02:02      2.84    0.11    0.65
  YS02001882YS02001884 CONDUIT     65.43     0  01:11      0.39    0.08    1.00
  YS02001884YS02001887 CONDUIT    126.55     0  01:11      0.33    0.17    1.00
  YS02001887YS02001890 CONDUIT   2052.03     0  02:10      2.61    3.51    1.00
  YS02001890YS02001895 CONDUIT    552.89     0  02:27      0.70    0.26    1.00
  YS02001895YS02001898 CONDUIT    551.64     0  01:55      0.70    0.96    1.00
  YS02001898YS02001901 CONDUIT    518.36     0  01:34      0.66    0.33    1.00
  YS02001901YS02001904 CONDUIT    521.06     0  02:44      0.66    0.81    1.00
  YS02001904YS02001907 CONDUIT    523.35     0  02:27      0.67    0.18    1.00
  YS02001907YS02006553 CONDUIT   2161.01     0  02:06      2.40    2.54    1.00
  YS02001910YS02001907 CONDUIT   1993.03     0  02:34      2.54    1.12    1.00
  YS02001915YS02001910 CONDUIT   1993.18     0  02:35      2.54    0.99    1.00
  YS02001918YS02001915 CONDUIT   1221.69     0  02:24      1.56    0.67    1.00
  YS02001920YS02001918 CONDUIT   1681.46     0  02:08      2.14    1.63    1.00
  YS02001923YS02001920 CONDUIT   1679.01     0  02:08      2.14    0.75    1.00
  YS02001926YS02001923 CONDUIT   1678.96     0  02:08      2.14    2.40    1.00
  YS02001929YS02001926 CONDUIT   1678.50     0  02:08      2.14    0.80    1.00
  YS02006553YS02006556 CONDUIT   2160.70     0  02:06      2.75    1.85    1.00
  YS02006556YS02006558 CONDUIT   2160.88     0  02:06      2.75    1.71    1.00
  YS02006558YS02006561 CONDUIT   1321.71     0  02:03      4.67    2.92    1.00
  YS02006561YS02001783 CONDUIT   1322.02     0  02:03      2.63    0.68    1.00
  YS02163301YS02001633 CONDUIT   1146.08     0  02:27      1.46    1.08    1.00
  YS02163601YS02164001 CONDUIT   1354.09     0  01:16      1.72    1.20    1.00
  YS02164001YS02001641 CONDUIT   1353.06     0  01:16      1.72    1.85    1.00
  YSB1154YSB6556       CONDUIT    725.69     0  02:05      1.89    1.30    1.00
  YSB1171HS02004479    CONDUIT    413.51     0  01:18      0.82    0.28    1.00
  YSB1174YSB1171       CONDUIT    750.69     0  02:04      1.95    1.15    1.00
  YSB6556YSB1171       CONDUIT    639.84     0  02:07      1.66    0.66    1.00
  CC-R1                PUMP       683.00     0  00:00              1.00
  CC-R2                PUMP       683.00     0  00:00              1.00
  CC-S1                PUMP       200.00     0  00:00              1.00
  CC-S2                PUMP       200.00     0  00:00              1.00
  JK-R1                PUMP      1000.00     0  00:00              1.00
  JK-R2                PUMP      1000.00     0  00:00              1.00
  JK-S                 PUMP       300.00     0  00:00              1.00
  
  
  ***************************
  Flow Classification Summary
  ***************************
  
  -------------------------------------------------------------------------------------
                      Adjusted    ---------- Fraction of Time in Flow Class ---------- 
                       /Actual         Up    Down  Sub   Sup   Up    Down  Norm  Inlet 
  Conduit               Length    Dry  Dry   Dry   Crit  Crit  Crit  Crit  Ltd   Ctrl  
  -------------------------------------------------------------------------------------
  HS02004478WS02006287    1.00   0.27  0.00  0.00  0.53  0.20  0.00  0.00  0.06  0.00
  HS02004479HS02004480    1.00   0.07  0.00  0.00  0.93  0.00  0.00  0.00  0.18  0.00
  HS02004480HS02004478    1.00   0.25  0.00  0.00  0.50  0.00  0.00  0.25  0.00  0.00
  HS02004770HS02004777    1.00   0.00  0.25  0.00  0.75  0.00  0.00  0.00  0.01  0.00
  HS02004777HS02004785    1.00   0.00  0.00  0.00  1.00  0.00  0.00  0.00  0.18  0.00
  HS02004785HS02004788    1.00   0.00  0.00  0.00  1.00  0.00  0.00  0.00  0.00  0.00
  HS02004788HS02004792    1.00   0.00  0.00  0.00  0.98  0.02  0.00  0.00  0.47  0.00
  HS02004792HS02004799    1.00   0.00  0.00  0.00  0.98  0.02  0.00  0.00  0.44  0.00
  HS02004799HS02004480    1.00   0.01  0.07  0.00  0.73  0.00  0.20  0.00  0.00  0.00
  HS02004802HS02004478    1.00   0.25  0.01  0.00  0.74  0.00  0.00  0.00  0.01  0.00
  HS02004807HS02004802    1.00   0.25  0.00  0.00  0.73  0.00  0.00  0.02  0.00  0.00
  HS02004817HS02004807    1.00   0.00  0.25  0.00  0.75  0.00  0.00  0.00  0.02  0.00
  HS02004817HS02004824    1.00   0.00  0.00  0.00  1.00  0.00  0.00  0.00  0.43  0.00
  HS02004824HS02004830    1.00   0.00  0.00  0.00  1.00  0.00  0.00  0.00  0.00  0.00
  HS02004830HS02004837    1.00   0.00  0.00  0.00  1.00  0.00  0.00  0.00  0.44  0.00
  HS02004837HS02004842    1.00   0.00  0.00  0.00  0.99  0.01  0.00  0.00  0.21  0.00
  HS02004842HS02004848    1.00   0.00  0.25  0.00  0.75  0.00  0.00  0.00  0.01  0.00
  HS02004848HS02004852    1.00   0.25  0.00  0.00  0.75  0.00  0.00  0.00  0.20  0.00
  HS02004852HS02004856    1.00   0.25  0.01  0.00  0.74  0.00  0.00  0.00  0.16  0.00
  HS02004856HS02004862    1.00   0.00  0.27  0.00  0.73  0.00  0.00  0.00  0.22  0.00
  HS02004862HS02004870    1.00   0.00  0.00  0.00  1.00  0.00  0.00  0.00  0.02  0.00
  HS02004870HS02004876    1.00   0.01  0.00  0.00  0.97  0.02  0.00  0.00  0.39  0.00
  HS02004876HS02004881    1.00   0.04  0.00  0.00  0.80  0.16  0.00  0.00  0.00  0.00
  HS02004881HS02006253    1.00   0.07  0.04  0.00  0.70  0.02  0.00  0.17  0.22  0.00
  HS02004901HS02004770    1.00   0.25  0.00  0.00  0.75  0.00  0.00  0.00  0.01  0.00
  WS02004401WS02004402    1.00   0.05  0.00  0.00  0.95  0.00  0.00  0.00  0.00  0.00
  WS02006109WS02006110    1.00   0.00  0.02  0.00  0.96  0.00  0.02  0.00  0.00  0.00
  WS02006110WS02006113    1.00   0.02  0.02  0.00  0.96  0.00  0.00  0.00  0.00  0.00
  WS02006111WS02006112    1.00   0.04  0.00  0.00  0.95  0.00  0.00  0.00  0.35  0.00
  WS02006112WS02006115    1.00   0.04  0.01  0.00  0.95  0.00  0.01  0.00  0.00  0.00
  WS02006113WS02006111    1.00   0.04  0.00  0.00  0.51  0.45  0.00  0.00  0.06  0.00
  WS02006115WS02006116    1.00   0.05  0.00  0.00  0.77  0.00  0.00  0.18  0.00  0.00
  WS02006116WS02004401    1.00   0.05  0.00  0.00  0.95  0.00  0.00  0.00  0.00  0.00
  WS02006228WS02006109    1.00   0.00  0.00  0.00  1.00  0.00  0.00  0.00  0.01  0.00
  WS02006229WS02006228    1.00   0.00  0.00  0.00  0.98  0.00  0.00  0.02  0.00  0.00
  WS02006230WS02006229    1.00   0.00  0.00  0.00  0.97  0.00  0.00  0.03  0.00  0.00
  WS02006231WS02006230    1.00   0.00  0.00  0.00  0.72  0.00  0.28  0.00  0.00  0.00
  WS02006232WS02006231    1.00   0.00  0.00  0.00  0.99  0.00  0.01  0.00  0.00  0.00
  WS02006234WS02006232    1.00   0.00  0.00  0.00  1.00  0.00  0.00  0.00  0.03  0.00
  WS02006235WS02006234    1.00   0.00  0.00  0.00  0.92  0.00  0.07  0.00  0.00  0.00
  WS02006238WS02006235    1.00   0.00  0.00  0.00  1.00  0.00  0.00  0.00  0.00  0.00
  WS02006239WS02006238    1.00   0.00  0.00  0.00  1.00  0.00  0.00  0.00  0.13  0.00
  WS02006240WS02006239    1.00   0.00  0.00  0.00  0.83  0.00  0.00  0.17  0.01  0.00
  WS02006242WS02006240    1.00   0.01  0.00  0.00  0.98  0.00  0.01  0.00  0.00  0.00
  WS02006243WS02006242    1.00   0.01  0.00  0.00  0.98  0.00  0.00  0.02  0.21  0.00
  WS02006245WS02006243    1.00   0.00  0.00  0.00  0.90  0.00  0.00  0.10  0.00  0.00
  WS02006247WS02006245    1.00   0.00  0.00  0.00  0.98  0.00  0.00  0.02  0.00  0.00
  WS02006248WS02006247    1.00   0.00  0.00  0.00  0.98  0.00  0.00  0.02  0.15  0.00
  WS02006249WS02006248    1.00   0.00  0.00  0.00  0.78  0.00  0.22  0.00  0.00  0.00
  WS02006251WS02006249    1.00   0.00  0.00  0.00  1.00  0.00  0.00  0.00  0.21  0.00
  WS02006252WS02006251    1.00   0.00  0.27  0.00  0.70  0.00  0.03  0.00  0.00  0.00
  WS02006253WS02006251    1.00   0.00  0.00  0.00  0.92  0.00  0.08  0.00  0.00  0.00
  WS02006256WS02006235    1.00   0.00  0.00  0.00  1.00  0.00  0.00  0.00  0.00  0.00
  WS02006280WS02006229    1.00   0.27  0.00  0.00  0.51  0.08  0.00  0.13  0.03  0.00
  WS02006284WS02006280    1.00   0.27  0.00  0.00  0.50  0.00  0.00  0.22  0.00  0.00
  WS02006287WS02006284    1.00   0.21  0.06  0.00  0.50  0.21  0.00  0.02  0.20  0.00
  YS02001580YS02001583    1.00   0.30  0.00  0.00  0.70  0.00  0.00  0.00  0.16  0.00
  YS02001583YS02001586    1.00   0.25  0.05  0.00  0.70  0.00  0.00  0.00  0.17  0.00
  YS02001586YS02001590    1.00   0.25  0.00  0.00  0.73  0.01  0.00  0.01  0.16  0.00
  YS02001590YS02001593    1.00   0.25  0.00  0.00  0.56  0.00  0.19  0.00  0.00  0.00
  YS02001593YS02001596    1.00   0.26  0.00  0.00  0.58  0.01  0.00  0.16  0.02  0.00
  YS02001596YS02001600    1.00   0.26  0.00  0.00  0.64  0.01  0.00  0.09  0.04  0.00
  YS02001600YS02001601    1.00   0.25  0.01  0.00  0.74  0.00  0.00  0.00  0.03  0.00
  YS02001601YS02001602    1.00   0.25  0.00  0.00  0.75  0.00  0.00  0.00  0.00  0.00
  YS02001602YS02001605    1.00   0.26  0.00  0.00  0.74  0.00  0.00  0.00  0.00  0.00
  YS02001605YS02001607    1.00   0.26  0.00  0.00  0.74  0.00  0.00  0.00  0.00  0.00
  YS02001607YS02001610    1.00   0.26  0.00  0.00  0.74  0.00  0.00  0.00  0.01  0.00
  YS02001610YS02001613    1.00   0.25  0.00  0.00  0.75  0.00  0.00  0.00  0.00  0.00
  YS02001613YS02001616    1.00   0.25  0.00  0.00  0.75  0.00  0.00  0.00  0.00  0.00
  YS02001616YS02001619    1.00   0.25  0.00  0.00  0.75  0.00  0.00  0.00  0.00  0.00
  YS02001619YS02001622    1.00   0.25  0.00  0.00  0.74  0.01  0.00  0.00  0.00  0.00
  YS02001622YS02001625    1.00   0.25  0.00  0.00  0.74  0.01  0.00  0.00  0.02  0.00
  YS02001625YS02001629    1.00   0.25  0.03  0.00  0.64  0.00  0.08  0.00  0.00  0.00
  YS02001629YS02163301    1.00   0.26  0.01  0.00  0.73  0.00  0.00  0.00  0.00  0.00
  YS02001633YS02163601    1.00   0.00  0.01  0.00  0.99  0.00  0.00  0.00  0.26  0.00
  YS02001641YS02001644    1.00   0.00  0.01  0.00  0.99  0.00  0.00  0.00  0.00  0.00
  YS02001644YS02001647    1.00   0.00  0.27  0.00  0.73  0.00  0.00  0.00  0.00  0.00
  YS02001647YS02001649    1.00   0.00  0.27  0.00  0.72  0.01  0.00  0.00  0.05  0.00
  YS02001649YS02001757    1.00   0.00  0.00  0.00  1.00  0.00  0.00  0.00  0.27  0.00
  YS02001652YS02001649    1.00   0.00  0.00  0.00  0.98  0.02  0.00  0.00  0.25  0.00
  YS02001655YS02001652    1.00   0.00  0.00  0.00  0.69  0.00  0.00  0.31  0.04  0.00
  YS02001658YS02001655    1.00   0.00  0.26  0.00  0.65  0.09  0.00  0.00  0.09  0.00
  YS02001661YS02001658    1.00   0.26  0.00  0.00  0.59  0.15  0.00  0.00  0.14  0.00
  YS02001664YS02001661    1.00   0.25  0.00  0.00  0.68  0.07  0.00  0.00  0.34  0.00
  YS02001745YS02001748    1.00   0.00  0.00  0.00  0.59  0.01  0.00  0.41  0.07  0.00
  YS02001748YS02001751    1.00   0.00  0.00  0.00  0.92  0.08  0.00  0.00  0.31  0.00
  YS02001751YS02001754    1.00   0.00  0.00  0.00  0.68  0.01  0.00  0.31  0.04  0.00
  YS02001754YS02001757    1.00   0.00  0.00  0.00  0.99  0.01  0.00  0.00  0.30  0.00
  YS02001757CaochengTiaoxuchi    1.00   0.00  0.00  0.00  0.97  0.03  0.00  0.00  0.28  0.00
  YS02001759YS02001757    1.00   0.00  0.00  0.00  0.98  0.02  0.00  0.00  0.13  0.00
  YS02001762YS02001759    1.00   0.00  0.00  0.00  1.00  0.00  0.00  0.00  0.02  0.00
  YS02001765YS02001762    1.00   0.00  0.00  0.00  1.00  0.00  0.00  0.00  0.23  0.00
  YS02001767YS02001765    1.00   0.00  0.00  0.00  1.00  0.00  0.00  0.00  0.00  0.00
  YS02001770YS02001767    1.00   0.00  0.00  0.00  1.00  0.00  0.00  0.00  0.00  0.00
  YS02001774YS02001770    1.00   0.00  0.25  0.00  0.74  0.00  0.00  0.00  0.01  0.00
  YS02001779YS02001774    1.00   0.00  0.00  0.00  1.00  0.00  0.00  0.00  0.27  0.00
  YS02001783YS02001784    1.00   0.00  0.28  0.00  0.72  0.00  0.00  0.00  0.03  0.00
  YS02001784YS02001785    1.00   0.00  0.00  0.00  1.00  0.00  0.00  0.00  0.25  0.00
  YS02001786YS02001788    1.00   0.00  0.00  0.00  0.76  0.24  0.00  0.00  0.00  0.00
  YS02001788YS02001790    1.00   0.00  0.00  0.00  0.51  0.49  0.00  0.00  0.45  0.00
  YS02001790YS02001791    1.00   0.00  0.00  0.00  0.03  0.97  0.00  0.00  0.19  0.00
  YS02001791YS02001793    1.00   0.00  0.00  0.00  0.00  1.00  0.00  0.00  0.05  0.00
  YS02001793JiankangQianchi    1.00   0.00  0.00  0.00  0.63  0.36  0.00  0.00  0.88  0.00
  YS02001882YS02001884    1.00   0.26  0.00  0.00  0.73  0.00  0.00  0.00  0.00  0.00
  YS02001884YS02001887    1.00   0.12  0.11  0.00  0.77  0.00  0.00  0.00  0.00  0.00
  YS02001887YS02001890    1.00   0.00  0.00  0.00  0.94  0.00  0.06  0.00  0.00  0.00
  YS02001890YS02001895    1.00   0.01  0.26  0.00  0.73  0.00  0.00  0.00  0.00  0.00
  YS02001895YS02001898    1.00   0.27  0.00  0.00  0.72  0.00  0.01  0.00  0.00  0.00
  YS02001898YS02001901    1.00   0.27  0.00  0.00  0.73  0.00  0.00  0.00  0.00  0.00
  YS02001901YS02001904    1.00   0.27  0.00  0.00  0.73  0.00  0.00  0.00  0.00  0.00
  YS02001904YS02001907    1.00   0.01  0.26  0.00  0.73  0.00  0.00  0.00  0.00  0.00
  YS02001907YS02006553    1.00   0.01  0.04  0.00  0.95  0.00  0.00  0.00  0.01  0.00
  YS02001910YS02001907    1.00   0.00  0.00  0.00  0.94  0.01  0.00  0.05  0.21  0.00
  YS02001915YS02001910    1.00   0.00  0.00  0.00  0.95  0.05  0.00  0.00  0.21  0.00
  YS02001918YS02001915    1.00   0.00  0.01  0.00  0.96  0.03  0.00  0.00  0.23  0.00
  YS02001920YS02001918    1.00   0.00  0.01  0.00  0.99  0.00  0.00  0.00  0.00  0.00
  YS02001923YS02001920    1.00   0.00  0.00  0.00  1.00  0.00  0.00  0.00  0.52  0.00
  YS02001926YS02001923    1.00   0.00  0.15  0.00  0.46  0.00  0.39  0.00  0.00  0.00
  YS02001929YS02001926    1.00   0.00  0.25  0.00  0.75  0.00  0.00  0.00  0.29  0.00
  YS02006553YS02006556    1.00   0.03  0.00  0.00  0.97  0.00  0.00  0.00  0.06  0.00
  YS02006556YS02006558    1.00   0.00  0.01  0.00  0.99  0.00  0.00  0.00  0.00  0.00
  YS02006558YS02006561    1.00   0.28  0.00  0.00  0.46  0.27  0.00  0.00  0.20  0.00
  YS02006561YS02001783    1.00   0.28  0.00  0.00  0.49  0.23  0.00  0.00  0.19  0.00
  YS02163301YS02001633    1.00   0.00  0.26  0.00  0.74  0.00  0.00  0.00  0.00  0.00
  YS02163601YS02164001    1.00   0.00  0.16  0.00  0.84  0.00  0.00  0.00  0.00  0.00
  YS02164001YS02001641    1.00   0.02  0.15  0.00  0.84  0.00  0.00  0.00  0.10  0.00
  YSB1154YSB6556          1.00   0.25  0.00  0.00  0.75  0.00  0.00  0.00  0.01  0.00
  YSB1171HS02004479       1.00   0.08  0.00  0.00  0.89  0.00  0.00  0.03  0.16  0.00
  YSB1174YSB1171          1.00   0.10  0.09  0.00  0.81  0.00  0.00  0.00  0.00  0.00
  YSB6556YSB1171          1.00   0.08  0.17  0.00  0.75  0.00  0.00  0.00  0.00  0.00
  
  
  *************************
  Conduit Surcharge Summary
  *************************
  
  ----------------------------------------------------------------------------
                                                           Hours        Hours 
                         --------- Hours Full --------   Above Full   Capacity
  Conduit                Both Ends  Upstream  Dnstream   Normal Flow   Limited
  ----------------------------------------------------------------------------
  HS02004478WS02006287        1.86      1.86      1.94      0.01         0.01
  HS02004479HS02004480        1.99      1.99      2.01      0.01         0.01
  HS02004480HS02004478        1.92      1.99      1.92      2.41         1.92
  HS02004770HS02004777        1.92      1.92      1.92      0.09         0.05
  HS02004777HS02004785        1.88      1.88      1.92      0.01         0.01
  HS02004785HS02004788        1.87      1.88      1.87      1.99         0.92
  HS02004788HS02004792        1.87      1.87      1.96      0.01         0.01
  HS02004792HS02004799        1.96      1.96      2.03      0.01         0.01
  HS02004799HS02004480        1.99      1.99      2.03      2.06         0.01
  HS02004802HS02004478        1.92      1.92      1.99      1.35         0.01
  HS02004807HS02004802        1.95      1.95      1.97      1.69         1.69
  HS02004817HS02004807        1.95      1.95      2.21      0.01         0.01
  HS02004817HS02004824        1.88      1.88      2.21      0.01         0.01
  HS02004824HS02004830        1.85      1.85      1.88      0.31         0.32
  HS02004830HS02004837        1.83      1.83      1.85      0.20         0.20
  HS02004837HS02004842        1.83      1.83      1.91      0.01         0.01
  HS02004842HS02004848        1.78      1.78      1.91      0.01         0.01
  HS02004848HS02004852        1.78      1.78      1.79      0.04         0.09
  HS02004852HS02004856        1.79      1.79      1.81      0.49         0.40
  HS02004856HS02004862        1.79      1.79      1.82      0.01         0.01
  HS02004862HS02004870        1.82      1.82      1.83      0.68         0.67
  HS02004870HS02004876        1.83      1.83      1.88      0.01         0.01
  HS02004876HS02004881        1.87      1.88      1.87      2.36         1.87
  HS02004881HS02006253        1.87      1.87      2.79      0.01         0.01
  HS02004901HS02004770        1.91      1.91      1.92      0.74         0.01
  WS02004401WS02004402        0.01      0.53      0.01      2.31         0.01
  WS02006109WS02006110        2.84      2.84      2.85      2.85         0.01
  WS02006110WS02006113        2.02      2.02      2.85      1.66         0.01
  WS02006111WS02006112        1.93      1.93      2.83      0.01         0.01
  WS02006112WS02006115        1.71      1.71      2.39      0.87         0.01
  WS02006113WS02006111        1.94      2.02      1.94      2.30         1.92
  WS02006115WS02006116        0.97      1.73      0.97      2.39         0.97
  WS02006116WS02004401        0.53      1.47      0.53      2.43         0.53
  WS02006228WS02006109        2.85      2.85      2.85      2.96         2.85
  WS02006229WS02006228        2.85      2.85      2.85      2.89         2.85
  WS02006230WS02006229        2.85      2.85      2.85      3.17         0.78
  WS02006231WS02006230        2.71      2.71      2.83      3.07         2.05
  WS02006232WS02006231        2.83      2.83      2.83      0.03         0.35
  WS02006234WS02006232        2.82      2.82      2.83      0.02         0.01
  WS02006235WS02006234        2.81      2.81      2.81      2.99         2.03
  WS02006238WS02006235        2.81      2.81      2.81      0.01         0.83
  WS02006239WS02006238        2.81      2.81      2.81      2.50         0.40
  WS02006240WS02006239        2.81      2.81      2.81      2.50         0.40
  WS02006242WS02006240        2.80      2.81      2.80      2.57         2.02
  WS02006243WS02006242        2.80      2.80      2.80      0.01         0.01
  WS02006245WS02006243        2.80      2.80      2.80      0.49         0.40
  WS02006247WS02006245        2.80      2.80      2.80      2.89         0.73
  WS02006248WS02006247        2.79      2.79      2.80      0.01         0.01
  WS02006249WS02006248        2.79      2.79      2.79      0.78         0.01
  WS02006251WS02006249        2.79      2.79      2.79      2.92         2.79
  WS02006252WS02006251        2.92      2.92      2.92      2.21         1.13
  WS02006253WS02006251        2.79      2.79      2.80      2.05         0.01
  WS02006256WS02006235        3.04      3.04      3.48      0.42         0.01
  WS02006280WS02006229        2.00      2.00      2.03      0.01         0.01
  WS02006284WS02006280        1.95      1.95      1.99      0.01         0.01
  WS02006287WS02006284        1.91      1.91      1.96      1.75         1.75
  YS02001580YS02001583        2.01      2.01      2.02      0.01         0.01
  YS02001583YS02001586        2.01      2.01      2.08      0.01         0.01
  YS02001586YS02001590        2.09      2.09      2.14      0.01         0.01
  YS02001590YS02001593        2.15      2.15      2.16      2.18         0.01
  YS02001593YS02001596        2.15      2.15      2.22      0.01         0.01
  YS02001596YS02001600        2.25      2.25      2.31      0.01         0.01
  YS02001600YS02001601        2.35      2.35      2.51      0.01         0.01
  YS02001601YS02001602        2.47      2.47      2.54      2.27         0.01
  YS02001602YS02001605        2.44      2.44      2.47      2.93         0.01
  YS02001605YS02001607        2.42      2.44      2.44      2.39         2.34
  YS02001607YS02001610        2.15      2.15      2.17      0.01         0.01
  YS02001610YS02001613        2.15      2.15      2.17      0.01         0.01
  YS02001613YS02001616        2.12      2.12      2.15      0.01         0.01
  YS02001616YS02001619        2.11      2.11      2.12      1.12         0.92
  YS02001619YS02001622        2.11      2.11      2.11      2.06         1.95
  YS02001622YS02001625        2.11      2.11      2.26      0.01         0.01
  YS02001625YS02001629        2.08      2.08      2.26      0.01         0.01
  YS02001629YS02163301        2.28      2.28      2.30      0.80         0.06
  YS02001633YS02163601        2.32      2.32      2.36      0.11         0.13
  YS02001641YS02001644        2.31      2.31      2.31      2.57         2.23
  YS02001644YS02001647        2.13      2.13      2.31      0.04         0.01
  YS02001647YS02001649        2.13      2.13      2.27      0.01         0.01
  YS02001649YS02001757        2.26      2.27      2.34      0.17         0.12
  YS02001652YS02001649        2.12      2.12      2.27      0.48         0.49
  YS02001655YS02001652        1.94      1.94      2.09      0.47         0.48
  YS02001658YS02001655        1.69      1.69      1.94      0.41         0.41
  YS02001661YS02001658        1.10      1.10      1.70      0.38         0.38
  YS02001664YS02001661        0.68      0.68      1.33      0.01         0.01
  YS02001745YS02001748        0.72      0.72      1.60      0.18         0.18
  YS02001748YS02001751        1.67      1.67      1.86      0.26         0.26
  YS02001751YS02001754        1.86      1.86      2.04      0.25         0.25
  YS02001754YS02001757        2.08      2.08      2.34      0.01         0.01
  YS02001757CaochengTiaoxuchi        2.28      2.34      2.66      0.94         0.84
  YS02001759YS02001757        2.26      2.26      2.34      0.11         0.05
  YS02001762YS02001759        2.23      2.23      2.26      0.01         0.02
  YS02001765YS02001762        2.20      2.20      2.24      0.01         0.01
  YS02001767YS02001765        2.17      2.17      2.20      0.01         0.02
  YS02001770YS02001767        2.16      2.16      2.17      1.69         0.92
  YS02001774YS02001770        2.15      2.15      2.22      0.01         0.01
  YS02001779YS02001774        2.03      2.03      2.22      0.01         0.01
  YS02001783YS02001784        1.86      1.88      1.86      1.96         1.86
  YS02001784YS02001785        1.78      1.86      1.78      2.05         1.78
  YS02001786YS02001788        0.01      1.78      0.01      2.02         0.01
  YS02001790YS02001791        0.01      0.01      0.01      1.85         0.01
  YS02001793JiankangQianchi        0.01      0.01      3.71      0.01         0.01
  YS02001882YS02001884        1.85      1.85      1.85      0.01         0.01
  YS02001884YS02001887        1.87      1.87      1.87      0.01         0.01
  YS02001887YS02001890        1.89      1.89      1.89      1.19         0.01
  YS02001890YS02001895        1.84      1.84      1.91      0.01         0.01
  YS02001895YS02001898        1.83      1.83      1.84      0.01         0.01
  YS02001898YS02001901        1.84      1.84      1.86      0.01         0.01
  YS02001901YS02001904        1.86      1.86      1.86      0.01         0.01
  YS02001904YS02001907        1.86      1.86      2.01      0.01         0.01
  YS02001907YS02006553        2.05      2.05      2.08      0.57         0.57
  YS02001910YS02001907        1.90      1.90      2.00      0.91         0.91
  YS02001915YS02001910        1.84      1.84      1.90      0.01         0.06
  YS02001918YS02001915        1.78      1.78      1.84      0.01         0.01
  YS02001920YS02001918        1.77      1.78      1.79      0.58         0.01
  YS02001923YS02001920        1.74      1.74      1.79      0.01         0.01
  YS02001926YS02001923        1.22      1.22      1.29      0.81         0.01
  YS02001929YS02001926        0.95      0.95      1.29      0.01         0.01
  YS02006553YS02006556        1.95      1.95      2.00      0.49         0.50
  YS02006556YS02006558        1.98      1.98      2.02      0.47         0.01
  YS02006558YS02006561        1.81      1.94      1.81      2.04         1.81
  YS02006561YS02001783        1.75      1.75      1.88      0.01         0.01
  YS02163301YS02001633        2.30      2.30      2.33      0.61         0.01
  YS02163601YS02164001        2.31      2.31      2.36      0.08         0.01
  YS02164001YS02001641        2.31      2.31      2.31      1.07         1.08
  YSB1154YSB6556              2.02      2.02      2.07      0.83         0.01
  YSB1171HS02004479           1.96      1.96      2.07      0.01         0.01
  YSB1174YSB1171              2.05      2.05      2.15      0.57         0.57
  YSB6556YSB1171              2.02      2.02      2.20      0.01         0.01
  
  
  ***************
  Pumping Summary
  ***************
  
  ---------------------------------------------------------------------------------------------------------
                                                  Min       Avg       Max     Total     Power    % Time Off
                        Percent   Number of      Flow      Flow      Flow    Volume     Usage    Pump Curve
  Pump                 Utilized   Start-Ups       LPS       LPS       LPS  10^6 ltr     Kw-hr    Low   High
  ---------------------------------------------------------------------------------------------------------
  CC-R1                   68.31           2      0.00    683.00    683.00     6.719    135.42    0.0   58.9
  CC-R2                   66.33           2      0.00    683.00    683.00     6.524    131.82    0.0   60.6
  CC-S1                   71.29           2      0.00    200.00    200.00     2.053     11.81    0.0   51.7
  CC-S2                   69.79           2      0.00    200.00    200.00     2.010     11.42    0.0   52.8
  JK-R1                   43.53           5      0.00   1000.00   1000.00     6.269     55.57    0.0    0.0
  JK-R2                    0.33           1      0.00   1000.00   1000.00     0.047      0.36    0.0    0.0
  JK-S                    58.96           2      0.00    300.00    300.00     2.547     41.81    0.0    0.0
  

  Analysis begun on:  Tue Jun  9 17:05:09 2026
  Analysis ended on:  Tue Jun  9 17:05:10 2026
  Total elapsed time: 00:00:01