
  EPA STORM WATER MANAGEMENT MODEL - VERSION 5.2 (Build 5.2.4)
  PYSWMM TOOLKIT API - VERSION v1.0 (2026-02-26)
  ------------------------------------------------------------

  WARNING 03: negative offset ignored for Link YS02001904YS02001907
  
  ****************
  Analysis Options
  ****************
  Flow Units ............... LPS
  Process Models:
    Rainfall/Runoff ........ YES
    RDII ................... NO
    Snowmelt ............... NO
    Groundwater ............ NO
    Flow Routing ........... YES
    Ponding Allowed ........ NO
    Water Quality .......... NO
  Infiltration Method ...... HORTON
  Flow Routing Method ...... DYNWAVE
  Surcharge Method ......... EXTRAN
  Starting Date ............ 08/28/2015 08:00:00
  Ending Date .............. 08/28/2015 12:00:00
  Antecedent Dry Days ...... 8.0
  Report Time Step ......... 00:01:00
  Wet Time Step ............ 00:01:00
  Dry Time Step ............ 00:01:00
  Routing Time Step ........ 30.00 sec
  Variable Time Step ....... YES
  Maximum Trials ........... 8
  Number of Threads ........ 4
  Head Tolerance ........... 0.001500 m
  
  
  **************************        Volume         Depth
  Runoff Quantity Continuity     hectare-m            mm
  **************************     ---------       -------
  Total Precipitation ......        61.844      1020.895
  Evaporation Loss .........         0.000         0.000
  Infiltration Loss ........         0.194         3.198
  Surface Runoff ...........        61.469      1014.716
  Final Storage ............         0.200         3.299
  Continuity Error (%) .....        -0.031
  
  
  **************************        Volume        Volume
  Flow Routing Continuity        hectare-m      10^6 ltr
  **************************     ---------     ---------
  Dry Weather Inflow .......         0.026         0.261
  Wet Weather Inflow .......        61.470       614.703
  Groundwater Inflow .......         0.000         0.000
  RDII Inflow ..............         0.000         0.000
  External Inflow ..........         0.015         0.148
  External Outflow .........         3.788        37.880
  Flooding Loss ............        57.521       575.217
  Evaporation Loss .........         0.000         0.000
  Exfiltration Loss ........         0.000         0.000
  Initial Stored Volume ....         0.243         2.431
  Final Stored Volume ......         0.450         4.500
  Continuity Error (%) .....        -0.009
  
  
  *************************
  Highest Continuity Errors
  *************************
  Node YS02001583 (-13.77%)
  Node YS02001884 (9.14%)
  
  
  ***************************
  Time-Step Critical Elements
  ***************************
  Link YS02001791YS02001793 (52.11%)
  Link WS02006280WS02006229 (21.17%)
  Link WS02006238WS02006235 (12.51%)
  Link WS02006115WS02006116 (3.30%)
  Link YS02006556YS02006558 (1.56%)
  
  
  ********************************
  Highest Flow Instability Indexes
  ********************************
  Link WS02006238WS02006235 (54)
  Link WS02006229WS02006228 (48)
  Link YS02001605YS02001607 (48)
  Link WS02006280WS02006229 (48)
  Link YS02001602YS02001605 (47)
  
  
  *********************************
  Most Frequent Nonconverging Nodes
  *********************************
  Node CC-1 (14.61%)
  Node CC-2 (14.61%)
  Node JK-1 (14.61%)
  Node JK-2 (14.61%)
  Node WS02004402 (14.61%)
  
  
  *************************
  Routing Time Step Summary
  *************************
  Minimum Time Step           :     0.03 sec
  Average Time Step           :     2.15 sec
  Maximum Time Step           :     9.90 sec
  % of Time in Steady State   :     0.00
  Average Iterations per Step :     4.56
  % of Steps Not Converging   :    14.61
  Time Step Frequencies       :
     30.000 - 13.228 sec      :     0.00 %
     13.228 -  5.833 sec      :     3.66 %
      5.833 -  2.572 sec      :     5.05 %
      2.572 -  1.134 sec      :    84.48 %
      1.134 -  0.500 sec      :     6.81 %
  
  
  ***************************
  Subcatchment Runoff Summary
  ***************************
  
  ------------------------------------------------------------------------------------------------------------------------------
                            Total      Total      Total      Total     Imperv       Perv      Total       Total     Peak  Runoff
                           Precip      Runon       Evap      Infil     Runoff     Runoff     Runoff      Runoff   Runoff   Coeff
  Subcatchment                 mm         mm         mm         mm         mm         mm         mm    10^6 ltr      LPS
  ------------------------------------------------------------------------------------------------------------------------------
  sub0                    1020.90       0.00       0.00       1.01     948.40      70.42    1018.81        0.83   621.70   0.998
  sub1                    1020.90       0.00       0.00       1.58     907.10     110.44    1017.54        6.77  4923.28   0.997
  sub10                   1020.90       0.00       0.00       1.15     937.75      80.38    1018.13       11.23  8212.41   0.997
  sub11                   1020.90       0.00       0.00       1.15     937.94      80.41    1018.34       11.83  8737.39   0.998
  sub12                   1020.90       0.00       0.00       1.87     887.15     130.66    1017.81        8.90  6626.78   0.997
  sub14                   1020.90       0.00       0.00       1.29     927.66      90.42    1018.09        9.69  7125.44   0.997
  sub15                   1020.90       0.00       0.00       4.31     713.55     300.25    1013.80       17.44 12372.56   0.993
  sub16                   1020.90       0.00       0.00       4.74     683.18     330.81    1013.99       10.62  7709.67   0.993
  sub17                   1020.90       0.00       0.00       4.60     693.35     320.75    1014.10        8.70  6308.11   0.993
  sub2                    1020.90       0.00       0.00       5.31     641.91     368.05    1009.96        9.41  6234.83   0.989
  sub22                   1020.90       0.00       0.00       6.18     581.13     429.54    1010.67       63.84 43962.56   0.990
  sub23                   1020.90       0.00       0.00       5.31     642.32     370.29    1012.61       48.30 34194.25   0.992
  sub3                    1020.90       0.00       0.00       5.31     641.52     366.02    1007.54       22.68 14356.82   0.987
  sub4                    1020.90       0.00       0.00       1.58     905.53     110.15    1015.69       21.19 14291.45   0.995
  sub5                    1020.90       0.00       0.00       1.01     947.87      70.33    1018.20       11.54  8404.75   0.997
  sub60                   1020.90       0.00       0.00       1.72     897.20     120.55    1017.75       13.37  9886.71   0.997
  sub61                   1020.90       0.00       0.00       2.44     846.26     170.69    1016.94       18.66 13786.99   0.996
  sub62                   1020.90       0.00       0.00       1.15     937.70      80.37    1018.06       27.90 20340.55   0.997
  sub63                   1020.90       0.00       0.00       4.17     723.89     290.65    1014.54       23.03 16675.55   0.994
  sub64                   1020.90       0.00       0.00       2.15     866.18     150.42    1016.59       24.42 17526.46   0.996
  sub65                   1020.90       0.00       0.00       1.87     886.38     130.37    1016.74       27.99 19938.10   0.996
  sub66                   1020.90       0.00       0.00       4.17     722.86     288.23    1011.09       47.15 30867.16   0.990
  sub67                   1020.90       0.00       0.00       1.15     938.11      80.44    1018.55       18.95 14102.03   0.998
  sub68                   1020.90       0.00       0.00       2.01     876.70     140.55    1017.24       27.99 20534.80   0.996
  sub69                   1020.90       0.00       0.00       2.15     867.10     150.90    1018.00       37.69 26690.17   0.997
  sub7                    1020.90       0.00       0.00       1.29     927.81      90.46    1018.27        3.43  2542.18   0.997
  sub70                   1020.90       0.00       0.00       4.88     672.55     336.90    1009.44       29.16 18126.49   0.989
  sub71                   1020.90       0.00       0.00       1.15     937.30      80.32    1017.62       26.61 19017.06   0.997
  sub72                   1020.90       0.00       0.00       1.01     946.91      70.25    1017.16       13.99  9739.20   0.996
  sub8                    1020.90       0.00       0.00       1.29     927.71      90.43    1018.14        6.51  4794.52   0.997
  sub9                    1020.90       0.00       0.00       1.29     927.68      90.43    1018.11        4.90  3604.24   0.997
  
  
  ******************
  Node Depth Summary
  ******************
  
  ---------------------------------------------------------------------------------
                                 Average  Maximum  Maximum  Time of Max    Reported
                                   Depth    Depth      HGL   Occurrence   Max Depth
  Node                 Type       Meters   Meters   Meters  days hr:min      Meters
  ---------------------------------------------------------------------------------
  HS02004478           JUNCTION     0.99     1.59    10.82     0  01:07        1.59
  HS02004479           JUNCTION     1.08     1.77    10.97     0  01:07        1.67
  HS02004480           JUNCTION     1.05     1.74    10.98     0  01:07        1.64
  HS02004770           JUNCTION     0.93     1.42    11.25     0  01:05        1.42
  HS02004777           JUNCTION     0.96     1.48    11.28     0  01:05        1.48
  HS02004785           JUNCTION     0.87     1.49    11.39     0  01:06        1.41
  HS02004788           JUNCTION     0.86     1.42    11.32     0  01:06        1.42
  HS02004792           JUNCTION     1.02     1.60    11.12     0  01:05        1.60
  HS02004799           JUNCTION     1.16     1.76    10.97     0  01:07        1.76
  HS02004802           JUNCTION     1.15     1.81    10.94     0  02:36        1.81
  HS02004807           JUNCTION     1.21     1.92    11.09     0  01:12        1.92
  HS02004817           JUNCTION     1.59     2.42    11.27     0  03:00        2.42
  HS02004824           JUNCTION     1.19     2.01    11.41     0  01:07        2.01
  HS02004830           JUNCTION     1.18     2.03    11.50     0  01:07        2.03
  HS02004837           JUNCTION     1.14     2.04    11.62     0  01:07        2.04
  HS02004842           JUNCTION     1.40     2.22    11.49     0  01:15        2.22
  HS02004848           JUNCTION     1.15     2.07    11.67     0  01:47        2.07
  HS02004852           JUNCTION     1.17     2.09    11.60     0  02:36        2.09
  HS02004856           JUNCTION     1.21     2.07    11.50     0  01:38        2.07
  HS02004862           JUNCTION     1.17     2.00    11.38     0  01:09        2.00
  HS02004870           JUNCTION     1.19     2.10    11.39     0  01:09        2.10
  HS02004876           JUNCTION     1.29     2.26    11.29     0  01:09        2.26
  HS02004881           JUNCTION     1.15     2.15    11.18     0  01:09        2.15
  HS02004901           JUNCTION     0.92     1.42    11.28     0  01:05        1.42
  WS02004401           JUNCTION     0.77     1.19     7.19     0  01:58        1.19
  WS02006109           JUNCTION     1.97     2.64     9.26     0  01:06        2.64
  WS02006110           JUNCTION     1.71     2.76     9.34     0  01:06        2.48
  WS02006111           JUNCTION     0.98     1.99     8.70     0  01:58        1.99
  WS02006112           JUNCTION     1.52     2.68     8.56     0  01:07        2.68
  WS02006113           JUNCTION     1.14     1.99     8.89     0  01:58        1.99
  WS02006115           JUNCTION     1.03     1.88     8.02     0  01:58        1.88
  WS02006116           JUNCTION     0.94     1.60     7.64     0  01:58        1.60
  WS02006228           JUNCTION     2.24     3.03     9.68     0  01:48        3.03
  WS02006229           JUNCTION     2.38     3.25     9.94     0  01:07        3.22
  WS02006230           JUNCTION     2.05     2.65     9.39     0  01:06        2.65
  WS02006231           JUNCTION     1.66     2.24     9.36     0  01:06        2.19
  WS02006232           JUNCTION     1.70     2.18     9.22     0  01:06        2.18
  WS02006234           JUNCTION     1.53     1.96     9.12     0  01:07        1.96
  WS02006235           JUNCTION     1.51     2.00     9.16     0  01:07        1.93
  WS02006238           JUNCTION     1.53     2.15     9.29     0  01:07        1.94
  WS02006239           JUNCTION     1.42     2.03     9.24     0  01:07        1.79
  WS02006240           JUNCTION     1.30     2.10     9.39     0  01:08        2.10
  WS02006242           JUNCTION     1.28     1.55     8.82     0  01:08        1.55
  WS02006243           JUNCTION     1.13     1.48     8.90     0  01:08        1.38
  WS02006245           JUNCTION     1.06     1.56     9.04     0  01:08        1.27
  WS02006247           JUNCTION     1.04     1.47     8.97     0  01:08        1.23
  WS02006248           JUNCTION     0.96     1.10     8.69     0  01:08        1.10
  WS02006249           JUNCTION     0.96     1.09     8.69     0  01:07        1.09
  WS02006251           JUNCTION     1.63     2.21     9.88     0  01:09        2.21
  WS02006252           JUNCTION     1.11     1.50     9.74     0  00:00        1.50
  WS02006253           JUNCTION     2.25     3.48    11.12     0  02:15        3.48
  WS02006256           JUNCTION     1.97     2.35     9.28     0  00:00        2.35
  WS02006280           JUNCTION     1.12     1.83    10.10     0  01:07        1.74
  WS02006284           JUNCTION     1.33     2.08    10.48     0  01:07        1.95
  WS02006287           JUNCTION     1.12     1.83    10.78     0  01:07        1.75
  YS02001580           JUNCTION     0.50     1.05     9.59     0  01:07        0.77
  YS02001583           JUNCTION     0.54     1.14     9.64     0  01:07        0.82
  YS02001586           JUNCTION     0.79     1.13     9.30     0  01:06        1.13
  YS02001590           JUNCTION     0.98     1.40     9.26     0  01:06        1.37
  YS02001593           JUNCTION     0.90     1.46     9.32     0  01:06        1.46
  YS02001596           JUNCTION     1.17     1.80     9.22     0  01:05        1.80
  YS02001600           JUNCTION     1.34     1.87     9.00     0  01:06        1.87
  YS02001601           JUNCTION     1.54     2.06     8.90     0  01:06        2.06
  YS02001602           JUNCTION     1.39     1.87     8.77     0  01:08        1.87
  YS02001605           JUNCTION     1.31     1.78     8.68     0  01:08        1.77
  YS02001607           JUNCTION     1.21     1.68     8.53     0  01:08        1.65
  YS02001610           JUNCTION     1.25     1.68     8.48     0  01:08        1.68
  YS02001613           JUNCTION     1.22     1.70     8.54     0  01:08        1.67
  YS02001616           JUNCTION     1.16     1.61     8.52     0  01:08        1.61
  YS02001619           JUNCTION     1.16     1.61     8.54     0  01:08        1.61
  YS02001622           JUNCTION     1.14     1.62     8.52     0  01:08        1.60
  YS02001625           JUNCTION     1.34     1.78     8.38     0  01:08        1.78
  YS02001629           JUNCTION     1.37     1.85     8.40     0  01:08        1.85
  YS02001633           JUNCTION     1.50     2.08     8.53     0  01:09        2.08
  YS02001641           JUNCTION     1.44     2.03     8.47     0  01:10        2.03
  YS02001644           JUNCTION     1.42     1.92     8.35     0  01:10        1.92
  YS02001647           JUNCTION     1.26     1.79     8.40     0  01:11        1.79
  YS02001649           JUNCTION     1.45     2.05     8.44     0  01:11        2.05
  YS02001652           JUNCTION     1.37     2.15     8.75     0  01:48        2.15
  YS02001655           JUNCTION     1.26     2.20     9.05     0  01:47        2.20
  YS02001658           JUNCTION     1.14     2.30     9.44     0  01:50        2.30
  YS02001661           JUNCTION     1.07     2.44     9.84     0  01:50        2.44
  YS02001664           JUNCTION     0.81     2.31    10.23     0  01:50        2.31
  YS02001745           JUNCTION     0.82     2.35     9.87     0  02:01        2.35
  YS02001748           JUNCTION     1.05     2.27     9.35     0  01:57        2.27
  YS02001751           JUNCTION     1.15     2.19     9.07     0  01:57        2.19
  YS02001754           JUNCTION     1.32     2.18     8.79     0  01:57        2.18
  YS02001757           JUNCTION     1.55     2.21     8.47     0  01:52        2.21
  YS02001759           JUNCTION     1.51     2.21     8.57     0  01:47        2.21
  YS02001762           JUNCTION     1.47     2.15     8.55     0  01:48        2.15
  YS02001765           JUNCTION     1.43     2.08     8.53     0  01:52        2.08
  YS02001767           JUNCTION     1.39     2.02     8.50     0  01:53        2.01
  YS02001770           JUNCTION     1.38     1.95     8.44     0  01:09        1.95
  YS02001774           JUNCTION     1.42     2.05     8.47     0  01:09        2.00
  YS02001779           JUNCTION     1.17     1.68     8.37     0  01:09        1.68
  YS02001783           JUNCTION     0.85     1.49     7.63     0  01:53        1.48
  YS02001784           JUNCTION     0.79     1.32     7.38     0  02:29        1.31
  YS02001786           JUNCTION     0.61     1.00     7.03     0  02:29        0.99
  YS02001788           JUNCTION     0.43     0.69     6.67     0  02:29        0.68
  YS02001790           JUNCTION     0.48     0.78     6.43     0  02:01        0.76
  YS02001791           JUNCTION     0.29     0.48     5.95     0  02:01        0.46
  YS02001793           JUNCTION     0.16     0.36     5.19     0  02:29        0.33
  YS02001882           JUNCTION     1.09     1.83     8.55     0  01:08        1.83
  YS02001884           JUNCTION     1.18     1.93     8.55     0  01:08        1.93
  YS02001887           JUNCTION     1.26     2.00     8.54     0  01:47        2.00
  YS02001890           JUNCTION     1.22     1.81     8.32     0  01:08        1.81
  YS02001895           JUNCTION     0.99     1.75     8.50     0  01:08        1.57
  YS02001898           JUNCTION     0.99     1.77     8.51     0  01:08        1.58
  YS02001901           JUNCTION     1.09     1.85     8.46     0  01:08        1.68
  YS02001904           JUNCTION     1.07     1.66     8.29     0  03:00        1.66
  YS02001907           JUNCTION     1.37     1.96     8.25     0  01:08        1.96
  YS02001910           JUNCTION     1.30     2.06     8.56     0  01:08        2.01
  YS02001915           JUNCTION     1.22     2.00     8.72     0  01:08        2.00
  YS02001918           JUNCTION     1.01     1.81     8.88     0  01:08        1.81
  YS02001920           JUNCTION     1.13     2.11     9.12     0  01:09        2.03
  YS02001923           JUNCTION     0.97     2.03     9.29     0  01:09        1.92
  YS02001926           JUNCTION     0.94     1.90     9.35     0  01:09        1.88
  YS02001929           JUNCTION     0.81     1.78     9.47     0  01:09        1.78
  YS02006553           JUNCTION     1.41     2.13     8.42     0  01:53        2.13
  YS02006556           JUNCTION     1.43     2.33     8.64     0  01:51        2.33
  YS02006558           JUNCTION     1.51     2.50     8.77     0  01:51        2.50
  YS02006561           JUNCTION     0.63     1.20     7.86     0  01:53        1.20
  YS02163301           JUNCTION     1.42     1.97     8.48     0  01:09        1.97
  YS02163601           JUNCTION     1.51     2.08     8.48     0  01:09        2.08
  YS02164001           JUNCTION     1.44     2.08     8.54     0  01:10        2.08
  YSB1154              JUNCTION     1.34     2.10    11.16     0  01:33        2.10
  YSB1171              JUNCTION     1.35     1.95    10.85     0  01:07        1.95
  YSB1174              JUNCTION     1.24     1.95    11.06     0  01:40        1.95
  YSB6556              JUNCTION     1.16     1.80    10.97     0  01:07        1.80
  CC-1                 OUTFALL      0.00     0.00     0.00     0  00:00        0.00
  CC-2                 OUTFALL      0.00     0.00     0.00     0  00:00        0.00
  JK-1                 OUTFALL      0.00     0.00     0.00     0  00:00        0.00
  JK-2                 OUTFALL      0.00     0.00     0.00     0  00:00        0.00
  WS02004402           OUTFALL      0.62     0.88     6.84     0  02:03        0.88
  CC-storage           STORAGE      1.73     2.30     7.80     0  02:10        2.30
  JK-storage           STORAGE      2.61     4.24     5.04     0  01:11        4.24
  
  
  *******************
  Node Inflow Summary
  *******************
  
  -------------------------------------------------------------------------------------------------
                                  Maximum  Maximum                  Lateral       Total        Flow
                                  Lateral    Total  Time of Max      Inflow      Inflow     Balance
                                   Inflow   Inflow   Occurrence      Volume      Volume       Error
  Node                 Type           LPS      LPS  days hr:min    10^6 ltr    10^6 ltr     Percent
  -------------------------------------------------------------------------------------------------
  HS02004478           JUNCTION      0.00  2672.48     0  01:07           0        18.9      -0.002
  HS02004479           JUNCTION      0.00   584.05     0  01:08           0        1.87       0.119
  HS02004480           JUNCTION      0.00  2580.97     0  01:06           0        11.4       0.022
  HS02004770           JUNCTION  34194.25 35089.93     0  02:13        48.3        53.3       0.008
  HS02004777           JUNCTION      0.03  1005.04     0  01:06    0.000432        2.72       0.314
  HS02004785           JUNCTION      0.15  1016.58     0  01:06     0.00216        2.72       0.108
  HS02004788           JUNCTION  12374.23 12374.23     0  02:13        17.5        18.5       0.004
  HS02004792           JUNCTION  43962.84 45052.55     0  02:13        63.8        71.5       0.001
  HS02004799           JUNCTION   7125.44  8267.54     0  02:13        9.69        19.5       0.055
  HS02004802           JUNCTION      0.00  1239.92     0  03:01           0        9.12       0.063
  HS02004807           JUNCTION   8737.39  9933.94     0  02:13        11.8        20.5       0.037
  HS02004817           JUNCTION      0.60  1197.06     0  02:35     0.00864        8.69       0.230
  HS02004824           JUNCTION  14291.50 15163.72     0  02:13        21.2        26.1       0.004
  HS02004830           JUNCTION      0.15  1048.39     0  02:14     0.00216        5.24       0.051
  HS02004837           JUNCTION   8218.76  8218.76     0  02:13        11.3        11.7       0.013
  HS02004842           JUNCTION      0.00  2354.69     0  02:16           0         9.5       0.151
  HS02004848           JUNCTION  14356.82 14356.82     0  02:13        22.7        22.9       0.005
  HS02004852           JUNCTION      0.00  1179.68     0  01:08           0        5.65       0.026
  HS02004856           JUNCTION   3604.24  4484.98     0  02:13         4.9        10.5       0.027
  HS02004862           JUNCTION   6235.03  7400.52     0  02:13        9.42        16.7       0.011
  HS02004870           JUNCTION   4794.52  4794.52     0  02:13        6.51        10.5       0.014
  HS02004876           JUNCTION   4923.28  5849.26     0  02:13        6.77        14.8       0.025
  HS02004881           JUNCTION   2542.18  3532.73     0  02:13        3.43        13.6       0.003
  HS02004901           JUNCTION   7709.67  7709.67     0  02:13        10.6        10.6       0.019
  WS02004401           JUNCTION      0.00  2426.78     0  02:03           0        17.2       0.084
  WS02006109           JUNCTION      1.23  1359.35     0  01:08      0.0177        12.4       0.171
  WS02006110           JUNCTION      0.00  1360.66     0  01:08           0        11.2       0.189
  WS02006111           JUNCTION      0.00  1361.18     0  01:08           0        11.2       0.056
  WS02006112           JUNCTION   6308.11  7145.58     0  02:13         8.7        19.9       0.191
  WS02006113           JUNCTION      0.00  1361.62     0  01:08           0        11.2       0.135
  WS02006115           JUNCTION      0.00  2426.78     0  02:03           0        17.2       0.117
  WS02006116           JUNCTION      0.00  2426.78     0  02:03           0        17.2       0.043
  WS02006228           JUNCTION      0.00  1357.54     0  01:07           0        12.4       0.111
  WS02006229           JUNCTION      0.00  2329.99     0  03:01           0          20       0.073
  WS02006230           JUNCTION     10.28  1025.44     0  01:48       0.148        8.81       0.250
  WS02006231           JUNCTION      0.00   978.92     0  01:07           0        4.67       0.273
  WS02006232           JUNCTION      0.00   981.71     0  01:07           0        4.66       0.354
  WS02006234           JUNCTION      0.00   983.44     0  01:07           0        4.65       0.300
  WS02006235           JUNCTION      0.00   918.00     0  01:07           0        4.38       0.162
  WS02006238           JUNCTION      0.00   998.78     0  01:07           0        4.14       0.147
  WS02006239           JUNCTION      0.00   828.24     0  01:07           0        4.13       0.293
  WS02006240           JUNCTION      0.00  1034.36     0  01:07           0        4.11       0.306
  WS02006242           JUNCTION      0.00   934.87     0  01:08           0        4.12       0.271
  WS02006243           JUNCTION      0.00   701.60     0  01:08           0        3.04       0.527
  WS02006245           JUNCTION      0.00   676.42     0  01:08           0        3.06       0.671
  WS02006247           JUNCTION      0.00   676.82     0  01:08           0        3.07       0.358
  WS02006248           JUNCTION      0.00   677.63     0  01:08           0         3.6       0.345
  WS02006249           JUNCTION      0.00  1411.09     0  02:02           0        12.2       0.173
  WS02006251           JUNCTION      0.08  1951.44     0  02:12     0.00111        14.9       0.116
  WS02006252           JUNCTION      0.00   820.21     0  02:26           0        6.72       0.006
  WS02006253           JUNCTION    621.70  1951.38     0  02:12       0.825        13.4       0.115
  WS02006256           JUNCTION      0.00   300.00     0  00:00           0        2.74      -0.046
  WS02006280           JUNCTION      0.00  2327.99     0  03:01           0        18.9      -0.011
  WS02006284           JUNCTION      0.10  2524.62     0  01:07     0.00138        18.9       0.005
  WS02006287           JUNCTION      0.00  2570.52     0  01:06           0        18.9       0.078
  YS02001580           JUNCTION      0.00   282.33     0  01:07           0     0.00485      -1.474
  YS02001583           JUNCTION      0.00   266.48     0  01:06           0      0.0152     -12.107
  YS02001586           JUNCTION  18126.49 18126.49     0  02:13        29.2        29.2       0.009
  YS02001590           JUNCTION      0.00   318.28     0  02:36           0        2.86       0.088
  YS02001593           JUNCTION      0.00   318.07     0  03:05           0        2.86       0.043
  YS02001596           JUNCTION      0.00   318.05     0  03:00           0        2.86       0.008
  YS02001600           JUNCTION      0.00   318.05     0  01:51           0        2.86       0.060
  YS02001601           JUNCTION  26690.17 27007.68     0  02:13        37.7        40.5       0.012
  YS02001602           JUNCTION      0.00   611.27     0  01:07           0        3.74       0.148
  YS02001605           JUNCTION      0.00   611.31     0  01:07           0        3.26       0.241
  YS02001607           JUNCTION      0.00   611.16     0  01:07           0        3.25       0.249
  YS02001610           JUNCTION      0.00   955.53     0  02:53           0        7.28       0.126
  YS02001613           JUNCTION      0.00   619.13     0  02:39           0         4.8       0.161
  YS02001616           JUNCTION      0.00   621.48     0  03:00           0        4.81       0.109
  YS02001619           JUNCTION  30867.16 30867.16     0  02:13        47.1        47.9       0.007
  YS02001622           JUNCTION      0.00  1053.96     0  02:37           0        8.89       0.068
  YS02001625           JUNCTION      0.00  1505.49     0  02:31           0        11.8       0.178
  YS02001629           JUNCTION      0.00  1139.02     0  02:32           0        7.85       0.059
  YS02001633           JUNCTION  19938.30 19938.30     0  02:13          28        29.5       0.046
  YS02001641           JUNCTION      0.00  1316.80     0  01:08           0         7.4       0.126
  YS02001644           JUNCTION  17526.50 19278.15     0  02:13        24.4        36.1       0.028
  YS02001647           JUNCTION      0.00  1887.23     0  01:09           0        7.12       0.070
  YS02001649           JUNCTION      0.00  3236.41     0  02:29           0        17.3       0.054
  YS02001652           JUNCTION      0.00  2429.30     0  02:32           0        12.3      -0.023
  YS02001655           JUNCTION      0.15  2731.44     0  02:06     0.00222        13.1       0.025
  YS02001658           JUNCTION      0.00  2783.75     0  01:54           0        13.2       0.002
  YS02001661           JUNCTION      0.00  2783.71     0  01:54           0        13.2       0.001
  YS02001664           JUNCTION  16675.55 16675.55     0  02:13          23          23      -0.002
  YS02001745           JUNCTION   9886.71  9886.71     0  02:13        13.4        13.4       0.013
  YS02001748           JUNCTION      0.04  3122.13     0  02:10    0.000648        10.2      -0.034
  YS02001751           JUNCTION      0.01  2353.32     0  02:22    0.000158        9.13       0.031
  YS02001754           JUNCTION      0.26  2353.58     0  02:14     0.00374        9.13      -0.025
  YS02001757           JUNCTION      0.00  3760.87     0  02:04           0        23.7       0.198
  YS02001759           JUNCTION  13787.03 13787.03     0  02:13        18.7        19.9       0.034
  YS02001762           JUNCTION      0.00   830.67     0  01:10           0        3.85       0.149
  YS02001765           JUNCTION      0.00   829.19     0  01:10           0        3.85       0.138
  YS02001767           JUNCTION      0.54   830.87     0  01:10      0.0077        3.86       0.177
  YS02001770           JUNCTION  20340.71 21062.89     0  02:13        27.9        30.5       0.013
  YS02001774           JUNCTION      0.00   852.14     0  02:34           0        5.45       0.107
  YS02001779           JUNCTION      0.01   851.77     0  02:35     7.2e-05        5.41      -0.019
  YS02001783           JUNCTION      0.00  1321.93     0  02:23           0        9.63       0.012
  YS02001784           JUNCTION      1.06  1322.69     0  02:02      0.0153        9.65       0.022
  YS02001786           JUNCTION      0.06  1323.11     0  02:23    0.000811        9.64       0.020
  YS02001788           JUNCTION      0.07  1322.95     0  02:23     0.00102        9.64       0.011
  YS02001790           JUNCTION      0.15  1353.07     0  02:01     0.00223        9.64       0.019
  YS02001791           JUNCTION      0.00  1409.40     0  02:01           0        9.64      -0.006
  YS02001793           JUNCTION      0.00  1452.49     0  02:01           0        9.64       0.003
  YS02001882           JUNCTION      0.00   206.39     0  01:08           0      0.0133      11.141
  YS02001884           JUNCTION      0.00   265.47     0  01:08           0      0.0489      10.057
  YS02001887           JUNCTION  14102.48 14102.48     0  02:13          19          19       0.030
  YS02001890           JUNCTION      0.00  2052.03     0  01:58           0        10.3       0.068
  YS02001895           JUNCTION      0.00   646.34     0  01:08           0        3.75       0.124
  YS02001898           JUNCTION      0.00   647.46     0  01:08           0        3.75       0.002
  YS02001901           JUNCTION      0.00   649.41     0  01:08           0        3.76       0.138
  YS02001904           JUNCTION      0.00   649.37     0  01:08           0        3.78       0.115
  YS02001907           JUNCTION      0.00  4670.34     0  01:54           0          25       0.084
  YS02001910           JUNCTION      0.00  1993.20     0  02:35           0        13.5       0.071
  YS02001915           JUNCTION  19017.08 20238.77     0  02:13        26.6        33.5       0.007
  YS02001918           JUNCTION      0.00  1681.50     0  02:31           0        8.18       0.013
  YS02001920           JUNCTION      2.87  1681.93     0  02:31      0.0413        8.15       0.006
  YS02001923           JUNCTION      0.04  1679.09     0  02:31    0.000543        8.09      -0.009
  YS02001926           JUNCTION      0.05  1678.58     0  02:31    0.000752        8.07      -0.018
  YS02001929           JUNCTION   9739.20  9739.20     0  02:13          14          14      -0.012
  YS02006553           JUNCTION      0.00  2160.65     0  01:54           0        8.82       0.156
  YS02006556           JUNCTION      0.00  2160.73     0  01:54           0        8.84       0.110
  YS02006558           JUNCTION  20535.68 20535.68     0  02:13          28        29.1       0.013
  YS02006561           JUNCTION      0.00  1321.90     0  02:02           0        9.63       0.005
  YS02163301           JUNCTION      0.00  1138.92     0  02:33           0        7.85       0.120
  YS02163601           JUNCTION      0.11  1323.40     0  01:08     0.00158        7.39       0.207
  YS02164001           JUNCTION      0.00  1320.56     0  01:08           0        7.39       0.126
  YSB1154              JUNCTION   8404.75  8404.75     0  02:13        11.5        11.5       0.018
  YSB1171              JUNCTION      0.00  1630.02     0  02:33           0        9.98       0.090
  YSB1174              JUNCTION   6626.78  6626.78     0  02:13         8.9         8.9       0.021
  YSB6556              JUNCTION      0.00   725.69     0  02:09           0        4.58       0.061
  CC-1                 OUTFALL       0.00   683.00     0  00:00           0        6.98       0.000
  CC-2                 OUTFALL       0.00   683.00     0  00:00           0         6.8       0.000
  JK-1                 OUTFALL       0.00  1000.00     0  00:00           0        6.91       0.000
  JK-2                 OUTFALL       0.00  1000.00     0  00:00           0      0.0483       0.000
  WS02004402           OUTFALL       0.00  2426.78     0  02:03           0        17.1       0.000
  CC-storage           STORAGE       0.00  3543.89     0  01:11           0        22.4       0.034
  JK-storage           STORAGE       0.00  1561.34     0  02:01           0        9.79      -0.078
  
  
  **********************
  Node Surcharge Summary
  **********************
  
  Surcharging occurs when water rises above the top of the highest conduit.
  ---------------------------------------------------------------------
                                               Max. Height   Min. Depth
                                   Hours       Above Crown    Below Rim
  Node                 Type      Surcharged         Meters       Meters
  ---------------------------------------------------------------------
  HS02004478           JUNCTION        2.03          0.674        0.266
  HS02004479           JUNCTION        2.11          0.970        0.080
  HS02004480           JUNCTION        2.14          1.031        0.069
  HS02004770           JUNCTION        2.09          0.720        0.000
  HS02004777           JUNCTION        2.10          0.780        0.000
  HS02004785           JUNCTION        2.06          0.790        0.000
  HS02004788           JUNCTION        2.05          0.720        0.000
  HS02004792           JUNCTION        2.12          0.900        0.000
  HS02004799           JUNCTION        2.16          1.060        0.000
  HS02004802           JUNCTION        2.14          1.103        0.107
  HS02004807           JUNCTION        2.13          1.220        0.000
  HS02004817           JUNCTION        2.34          1.724        0.016
  HS02004824           JUNCTION        2.06          1.310        0.000
  HS02004830           JUNCTION        2.03          1.330        0.000
  HS02004837           JUNCTION        2.00          1.340        0.000
  HS02004842           JUNCTION        2.09          1.520        0.000
  HS02004848           JUNCTION        1.99          1.370        0.000
  HS02004852           JUNCTION        2.01          1.390        0.030
  HS02004856           JUNCTION        2.00          1.300        0.000
  HS02004862           JUNCTION        2.02          1.300        0.000
  HS02004870           JUNCTION        2.03          1.400        0.000
  HS02004876           JUNCTION        2.07          1.560        0.000
  HS02004881           JUNCTION        2.06          1.450        0.000
  HS02004901           JUNCTION        2.08          0.720        0.000
  WS02004401           JUNCTION        0.96          0.194        1.466
  WS02006109           JUNCTION        2.90          1.820        0.000
  WS02006110           JUNCTION        2.89          1.850        0.000
  WS02006111           JUNCTION        2.08          1.181        0.689
  WS02006112           JUNCTION        2.53          1.680        0.000
  WS02006113           JUNCTION        2.18          1.193        0.737
  WS02006115           JUNCTION        1.92          0.874        1.376
  WS02006116           JUNCTION        1.63          0.544        1.746
  WS02006228           JUNCTION        2.90          2.200        0.000
  WS02006229           JUNCTION        2.18          1.070        0.000
  WS02006230           JUNCTION        2.86          1.570        0.000
  WS02006231           JUNCTION        2.89          1.530        0.000
  WS02006232           JUNCTION        2.89          1.480        0.000
  WS02006234           JUNCTION        2.88          1.240        0.000
  WS02006235           JUNCTION        2.87          1.290        0.000
  WS02006238           JUNCTION        2.88          1.430        0.000
  WS02006239           JUNCTION        2.87          1.290        0.000
  WS02006240           JUNCTION        2.87          1.390        0.000
  WS02006242           JUNCTION        2.87          0.820        0.000
  WS02006243           JUNCTION        2.86          0.770        0.000
  WS02006245           JUNCTION        2.87          0.850        0.000
  WS02006247           JUNCTION        2.87          0.760        0.000
  WS02006248           JUNCTION        2.87          0.380        0.000
  WS02006249           JUNCTION        2.87          0.390        0.000
  WS02006251           JUNCTION        2.87          1.180        0.000
  WS02006252           JUNCTION        3.01          1.100        0.000
  WS02006253           JUNCTION        2.87          2.437        0.043
  WS02006256           JUNCTION        3.54          2.050        0.000
  WS02006280           JUNCTION        2.14          0.780        0.000
  WS02006284           JUNCTION        2.11          0.800        0.000
  WS02006287           JUNCTION        2.08          0.827        0.063
  YS02001580           JUNCTION        2.20          0.450        0.000
  YS02001583           JUNCTION        2.20          0.500        0.000
  YS02001586           JUNCTION        2.27          0.510        0.000
  YS02001590           JUNCTION        2.33          0.750        0.000
  YS02001593           JUNCTION        2.32          0.840        0.000
  YS02001596           JUNCTION        2.38          1.070        0.000
  YS02001600           JUNCTION        2.46          1.190        0.000
  YS02001601           JUNCTION        2.65          1.440        0.000
  YS02001602           JUNCTION        2.60          1.270        0.000
  YS02001605           JUNCTION        2.58          1.180        0.000
  YS02001607           JUNCTION        2.32          0.680        0.000
  YS02001610           JUNCTION        2.34          0.680        0.000
  YS02001613           JUNCTION        2.32          0.700        0.000
  YS02001616           JUNCTION        2.29          0.610        0.000
  YS02001619           JUNCTION        2.28          0.610        0.000
  YS02001622           JUNCTION        2.29          0.620        0.000
  YS02001625           JUNCTION        2.42          0.780        0.000
  YS02001629           JUNCTION        2.25          0.470        0.000
  YS02001633           JUNCTION        2.47          1.060        0.000
  YS02001641           JUNCTION        2.47          1.030        0.070
  YS02001644           JUNCTION        2.47          0.920        0.000
  YS02001647           JUNCTION        2.34          0.788        0.112
  YS02001649           JUNCTION        2.46          1.050        0.000
  YS02001652           JUNCTION        2.31          1.123        0.007
  YS02001655           JUNCTION        2.17          1.200        0.000
  YS02001658           JUNCTION        1.95          1.300        0.000
  YS02001661           JUNCTION        1.75          1.371        0.019
  YS02001664           JUNCTION        1.19          1.310        0.000
  YS02001745           JUNCTION        1.23          1.350        0.000
  YS02001748           JUNCTION        1.90          1.190        0.000
  YS02001751           JUNCTION        2.11          1.191        0.009
  YS02001754           JUNCTION        2.26          1.128        0.022
  YS02001757           JUNCTION        2.54          1.210        0.000
  YS02001759           JUNCTION        2.47          1.210        0.000
  YS02001762           JUNCTION        2.44          1.150        0.000
  YS02001765           JUNCTION        2.40          1.085        0.015
  YS02001767           JUNCTION        2.37          1.016        0.014
  YS02001770           JUNCTION        2.35          0.920        0.000
  YS02001774           JUNCTION        2.42          1.050        0.000
  YS02001779           JUNCTION        2.24          0.680        0.000
  YS02001783           JUNCTION        2.04          0.686        0.914
  YS02001784           JUNCTION        2.03          0.515        0.975
  YS02001786           JUNCTION        1.97          0.196        1.234
  YS02001882           JUNCTION        2.01          0.830        0.000
  YS02001884           JUNCTION        2.02          0.870        0.000
  YS02001887           JUNCTION        2.04          0.950        0.000
  YS02001890           JUNCTION        2.04          0.760        0.000
  YS02001895           JUNCTION        2.00          0.750        0.000
  YS02001898           JUNCTION        2.00          0.740        0.000
  YS02001901           JUNCTION        2.03          0.850        0.020
  YS02001904           JUNCTION        2.02          0.657        0.193
  YS02001907           JUNCTION        2.13          0.950        0.000
  YS02001910           JUNCTION        2.05          1.058        0.042
  YS02001915           JUNCTION        2.01          1.000        0.000
  YS02001918           JUNCTION        1.96          0.810        0.000
  YS02001920           JUNCTION        1.97          1.107        0.033
  YS02001923           JUNCTION        1.82          0.820        0.000
  YS02001926           JUNCTION        1.83          0.900        0.000
  YS02001929           JUNCTION        1.62          0.780        0.000
  YS02006553           JUNCTION        2.14          1.135        0.055
  YS02006556           JUNCTION        2.09          1.292        0.058
  YS02006558           JUNCTION        2.09          1.400        0.000
  YS02006561           JUNCTION        1.94          0.404        0.746
  YS02163301           JUNCTION        2.45          0.966        0.064
  YS02163601           JUNCTION        2.51          1.080        0.000
  YS02164001           JUNCTION        2.46          1.079        0.021
  YSB1154              JUNCTION        2.20          1.400        0.000
  YSB1171              JUNCTION        2.20          1.100        0.000
  YSB1174              JUNCTION        2.18          1.250        0.000
  YSB6556              JUNCTION        2.16          1.100        0.000
  
  
  *********************
  Node Flooding Summary
  *********************
  
  Flooding refers to all water that overflows a node, whether it ponds or not.
  --------------------------------------------------------------------------
                                                             Total   Maximum
                                 Maximum   Time of Max       Flood    Ponded
                        Hours       Rate    Occurrence      Volume     Depth
  Node                 Flooded       LPS   days hr:min    10^6 ltr    Meters
  --------------------------------------------------------------------------
  HS02004770              2.02  35084.45      0  02:13      52.259     0.000
  HS02004777              0.01     98.06      0  01:06       0.001     0.000
  HS02004785              0.01    660.89      0  01:06       0.002     0.000
  HS02004788              0.90  10856.65      0  02:13       9.031     0.000
  HS02004792              1.99  43902.14      0  02:13      61.698     0.000
  HS02004799              1.89   6961.36      0  02:13       8.446     0.000
  HS02004807              1.83   8700.99      0  02:13      11.293     0.000
  HS02004824              1.76  13963.60      0  02:13      17.367     0.000
  HS02004830              0.51    176.16      0  02:14       0.292     0.000
  HS02004837              0.43   6084.56      0  02:13       3.323     0.000
  HS02004842              1.76   2354.69      0  02:17       9.008     0.000
  HS02004848              0.85  12201.98      0  02:13      10.957     0.000
  HS02004856              1.08   3481.63      0  02:13       3.555     0.000
  HS02004862              1.75   7398.92      0  02:13      12.685     0.000
  HS02004870              0.57   3705.52      0  02:13       2.189     0.000
  HS02004876              0.90   4857.94      0  02:13       4.584     0.000
  HS02004881              0.37   2200.80      0  02:13       1.089     0.000
  HS02004901              1.56   7238.99      0  02:13       7.373     0.000
  WS02006109              1.37    449.90      0  02:03       1.166     0.000
  WS02006110              0.01    463.45      0  01:06       0.001     0.000
  WS02006112              0.45   4718.07      0  02:13       2.665     0.000
  WS02006228              0.01      0.51      0  02:32       0.000     0.000
  WS02006229              0.01     77.78      0  01:07       0.000     0.000
  WS02006230              2.09    572.76      0  02:36       4.054     0.000
  WS02006231              0.01    267.71      0  01:06       0.000     0.000
  WS02006232              0.27    581.65      0  01:06       0.003     0.000
  WS02006234              2.13    318.42      0  01:07       0.962     0.000
  WS02006235              0.01    160.52      0  01:07       0.001     0.000
  WS02006238              0.01    429.31      0  01:07       0.001     0.000
  WS02006239              0.01    453.03      0  01:07       0.001     0.000
  WS02006240              0.01    971.24      0  01:08       0.003     0.000
  WS02006242              2.16    896.05      0  01:08       1.113     0.000
  WS02006243              0.01    393.50      0  01:08       0.004     0.000
  WS02006245              0.01     35.65      0  01:08       0.000     0.000
  WS02006247              0.01     28.92      0  01:08       0.000     0.000
  WS02006248              2.25    362.74      0  01:12       2.665     0.000
  WS02006249              2.87   1350.24      0  02:29      10.698     0.000
  WS02006251              0.70    133.53      0  01:09       0.161     0.000
  WS02006252              2.01    820.21      0  01:52       5.217     0.000
  WS02006256              2.54    293.19      0  00:00       1.800     0.000
  WS02006280              0.01     24.76      0  01:07       0.000     0.000
  WS02006284              0.01    202.93      0  01:07       0.000     0.000
  YS02001580              0.01    253.06      0  01:07       0.001     0.000
  YS02001583              0.01    224.55      0  01:07       0.001     0.000
  YS02001586              2.16  17803.26      0  02:13      26.302     0.000
  YS02001590              0.01    249.63      0  01:06       0.000     0.000
  YS02001593              0.01     64.75      0  01:06       0.000     0.000
  YS02001596              0.01    113.63      0  01:05       0.000     0.000
  YS02001600              0.01     20.75      0  01:06       0.000     0.000
  YS02001601              2.21  26604.06      0  02:13      36.793     0.000
  YS02001602              2.17     62.10      0  01:15       0.475     0.000
  YS02001605              0.01     15.24      0  01:08       0.000     0.000
  YS02001607              0.01    300.51      0  01:08       0.002     0.000
  YS02001610              2.12    955.07      0  02:43       6.516     0.000
  YS02001613              0.01    298.08      0  01:08       0.001     0.000
  YS02001616              0.23     39.61      0  01:08       0.001     0.000
  YS02001619              1.70  29188.54      0  02:13      34.952     0.000
  YS02001622              0.01    249.67      0  01:08       0.000     0.000
  YS02001625              2.10   1505.27      0  02:31      10.269     0.000
  YS02001629              1.85    686.84      0  02:32       3.375     0.000
  YS02001633              1.04  17891.05      0  02:13      15.795     0.000
  YS02001644              1.91  19274.78      0  02:13      33.315     0.000
  YS02001649              1.14   2389.70      0  02:29       7.406     0.000
  YS02001655              0.75    303.19      0  01:54       0.768     0.000
  YS02001658              0.67     52.16      0  01:54       0.124     0.000
  YS02001664              0.66  13890.28      0  02:13       9.797     0.000
  YS02001745              0.34   6763.81      0  02:13       3.175     0.000
  YS02001748              0.46    768.81      0  02:15       1.078     0.000
  YS02001757              0.62    783.60      0  02:24       1.360     0.000
  YS02001759              0.68  11656.97      0  02:13       8.242     0.000
  YS02001762              0.04      1.29      0  01:53       0.000     0.000
  YS02001770              1.58  20208.72      0  02:13      23.797     0.000
  YS02001774              0.01     26.99      0  01:09       0.000     0.000
  YS02001779              1.89    851.48      0  02:35       5.393     0.000
  YS02001882              0.01     48.82      0  01:08       0.000     0.000
  YS02001884              0.01     25.61      0  01:08       0.000     0.000
  YS02001887              0.73  12050.18      0  02:13       8.650     0.000
  YS02001890              1.87   1536.47      0  01:53       6.532     0.000
  YS02001895              0.01    214.32      0  01:08       0.000     0.000
  YS02001898              0.01    103.52      0  01:08       0.000     0.000
  YS02001907              1.93   4669.74      0  01:54      23.895     0.000
  YS02001915              1.43  18242.43      0  02:13      19.898     0.000
  YS02001918              0.90    459.73      0  02:31       1.267     0.000
  YS02001923              0.01    163.73      0  01:09       0.000     0.000
  YS02001926              0.01    450.47      0  01:09       0.004     0.000
  YS02001929              0.67   8058.71      0  02:13       5.942     0.000
  YS02006558              0.64  17052.56      0  02:13      11.686     0.000
  YS02163601              0.01      9.98      0  01:10       0.000     0.000
  YSB1154                 1.16   7677.80      0  02:13       6.963     0.000
  YSB1171                 1.94   1629.65      0  02:33       9.681     0.000
  YSB1174                 0.90   5876.00      0  02:13       4.679     0.000
  YSB6556                 1.30     85.86      0  02:09       0.377     0.000
  CC-storage              0.89    410.27      0  02:10       1.019     0.000
  
  
  **********************
  Storage Volume Summary
  **********************
  
  ------------------------------------------------------------------------------------------------
                         Average    Avg   Evap  Exfil     Maximum    Max    Time of Max    Maximum
                          Volume   Pcnt   Pcnt   Pcnt      Volume   Pcnt     Occurrence    Outflow
  Storage Unit           1000 m³   Full   Loss   Loss     1000 m³   Full    days hr:min        LPS
  ------------------------------------------------------------------------------------------------
  CC-storage               4.829   75.3    0.0    0.0       6.410  100.0       0  02:10    1783.54
  JK-storage               0.131   45.0    0.0    0.0       0.213   73.0       0  01:11    2300.00
  
  
  ***********************
  Outfall Loading Summary
  ***********************
  
  -----------------------------------------------------------
                         Flow       Avg       Max       Total
                         Freq      Flow      Flow      Volume
  Outfall Node           Pcnt       LPS       LPS    10^6 ltr
  -----------------------------------------------------------
  CC-1                  82.42    683.00    683.00       6.984
  CC-2                  80.04    683.00    683.00       6.805
  JK-1                  54.62   1000.00   1000.00       6.906
  JK-2                   0.31   1000.00   1000.00       0.048
  WS02004402            95.08   1450.03   2426.78      17.137
  -----------------------------------------------------------
  System                62.49   4816.03   4792.78      37.880
  
  
  ********************
  Link Flow Summary
  ********************
  
  -----------------------------------------------------------------------------
                                 Maximum  Time of Max   Maximum    Max/    Max/
                                  |Flow|   Occurrence   |Veloc|    Full    Full
  Link                 Type          LPS  days hr:min     m/sec    Flow   Depth
  -----------------------------------------------------------------------------
  HS02004478WS02006287 CONDUIT   2570.52     0  01:06      3.00    0.72    1.00
  HS02004479HS02004480 CONDUIT    581.12     0  01:08      0.83    0.56    1.00
  HS02004480HS02004478 CONDUIT   2577.88     0  01:06      3.68   10.86    1.00
  HS02004770HS02004777 CONDUIT   1005.01     0  01:06      1.44    1.84    1.00
  HS02004777HS02004785 CONDUIT   1016.43     0  01:06      1.59    1.25    1.00
  HS02004785HS02004788 CONDUIT    845.20     0  01:06      1.35    6.37    1.00
  HS02004788HS02004792 CONDUIT   1089.71     0  02:13      1.56    0.72    1.00
  HS02004792HS02004799 CONDUIT   1861.29     0  01:06      2.66    1.14    1.00
  HS02004799HS02004480 CONDUIT   2083.50     0  01:06      2.98    2.63    1.00
  HS02004802HS02004478 CONDUIT   1240.27     0  03:01      1.77    1.09    1.00
  HS02004807HS02004802 CONDUIT   1239.92     0  03:01      1.77    2.37    1.00
  HS02004817HS02004807 CONDUIT   1197.06     0  02:59      1.71    0.71    1.00
  HS02004817HS02004824 CONDUIT   1196.46     0  02:35      1.71    0.54    1.00
  HS02004824HS02004830 CONDUIT    872.23     0  02:25      1.25    1.14    1.00
  HS02004830HS02004837 CONDUIT   1048.24     0  02:14      1.50    1.04    1.00
  HS02004837HS02004842 CONDUIT   1084.84     0  02:14      1.55    0.65    1.00
  HS02004842HS02004848 CONDUIT   1269.84     0  02:17      1.81    0.74    1.00
  HS02004848HS02004852 CONDUIT   1179.68     0  01:08      1.72    1.33    1.00
  HS02004852HS02004856 CONDUIT   1182.78     0  01:08      1.69    1.35    1.00
  HS02004856HS02004862 CONDUIT   1312.94     0  01:08      1.89    1.31    1.00
  HS02004862HS02004870 CONDUIT   1443.94     0  01:08      2.20    1.56    1.00
  HS02004870HS02004876 CONDUIT   1524.28     0  01:09      2.18    1.01    1.00
  HS02004876HS02004881 CONDUIT   1707.92     0  01:09      2.63   18.17    1.00
  HS02004881HS02006253 CONDUIT   1742.61     0  02:34      3.05    0.34    1.00
  HS02004901HS02004770 CONDUIT    469.86     0  02:36      0.67    1.00    1.00
  WS02004401WS02004402 CONDUIT   2426.78     0  02:03      3.17    2.91    0.94
  WS02006109WS02006110 CONDUIT   1360.66     0  01:08      2.71    2.62    1.00
  WS02006110WS02006113 CONDUIT   1361.62     0  01:08      2.71    1.24    1.00
  WS02006111WS02006112 CONDUIT   1378.68     0  01:07      2.75    0.66    1.00
  WS02006112WS02006115 CONDUIT   2426.78     0  02:03      3.09    1.43    1.00
  WS02006113WS02006111 CONDUIT   1361.18     0  01:08      3.06    1.63    1.00
  WS02006115WS02006116 CONDUIT   2426.78     0  02:03      3.09    3.11    1.00
  WS02006116WS02004401 CONDUIT   2426.78     0  02:03      3.09    3.34    1.00
  WS02006228WS02006109 CONDUIT   1358.12     0  01:08      2.70    5.93    1.00
  WS02006229WS02006228 CONDUIT   1357.54     0  01:07      2.70    4.50    1.00
  WS02006230WS02006229 CONDUIT   1015.16     0  01:48      2.64   22.59    1.00
  WS02006231WS02006230 CONDUIT    978.92     0  01:07      2.54   14.85    1.00
  WS02006232WS02006231 CONDUIT    981.71     0  01:07      2.55    2.06    1.00
  WS02006234WS02006232 CONDUIT    983.44     0  01:07      2.68    1.99    1.00
  WS02006235WS02006234 CONDUIT    917.97     0  01:07      2.44    9.69    1.00
  WS02006238WS02006235 CONDUIT    998.78     0  01:07      3.04    2.23    1.00
  WS02006239WS02006238 CONDUIT    828.24     0  01:07      2.79    2.65    1.00
  WS02006240WS02006239 CONDUIT    808.46     0  01:07      2.41    2.54    1.00
  WS02006242WS02006240 CONDUIT    491.77     0  01:08      1.32    1.95    1.00
  WS02006243WS02006242 CONDUIT    443.10     0  01:08      1.50    0.95    1.00
  WS02006245WS02006243 CONDUIT    701.60     0  01:08      1.87    2.08    1.00
  WS02006247WS02006245 CONDUIT    676.42     0  01:08      1.76    5.36    1.00
  WS02006248WS02006247 CONDUIT    676.82     0  01:08      1.76    1.47    1.00
  WS02006249WS02006248 CONDUIT    677.63     0  01:08      1.76    3.71    1.00
  WS02006251WS02006249 CONDUIT   1411.09     0  02:02      3.67    4.07    1.00
  WS02006252WS02006251 CONDUIT    420.21     0  02:26     24.89    1.54    1.00
  WS02006253WS02006251 CONDUIT   1951.36     0  02:12      5.07    5.85    1.00
  WS02006256WS02006235 CONDUIT    288.93     0  00:00      4.23    3.06    1.00
  WS02006280WS02006229 CONDUIT   2329.99     0  03:01      5.39    0.50    1.00
  WS02006284WS02006280 CONDUIT   2327.99     0  03:01      3.36    0.97    1.00
  WS02006287WS02006284 CONDUIT   2524.52     0  01:07      3.23    1.17    1.00
  YS02001580YS02001583 CONDUIT    282.33     0  01:07      1.11    1.09    1.00
  YS02001583YS02001586 CONDUIT    266.48     0  01:06      1.21    0.40    1.00
  YS02001586YS02001590 CONDUIT    318.28     0  02:36      1.39    0.56    1.00
  YS02001590YS02001593 CONDUIT    318.07     0  03:05      1.12    2.00    1.00
  YS02001593YS02001596 CONDUIT    318.05     0  03:00      1.79    0.50    1.00
  YS02001596YS02001600 CONDUIT    318.05     0  01:51      1.33    0.62    1.00
  YS02001600YS02001601 CONDUIT    318.15     0  03:06      1.13    0.55    1.00
  YS02001601YS02001602 CONDUIT    611.27     0  01:07      2.16    2.21    1.00
  YS02001602YS02001605 CONDUIT    611.31     0  01:07      2.16   12.94    1.00
  YS02001605YS02001607 CONDUIT    611.16     0  01:07      2.16    3.35    1.00
  YS02001607YS02001610 CONDUIT    683.08     0  01:07      1.02    0.65    1.00
  YS02001610YS02001613 CONDUIT    619.35     0  01:25      0.88    0.71    1.00
  YS02001613YS02001616 CONDUIT    619.13     0  02:39      0.89    0.53    1.00
  YS02001616YS02001619 CONDUIT    621.48     0  03:00      0.91    1.08    1.00
  YS02001619YS02001622 CONDUIT   1053.96     0  02:37      2.06    1.55    1.00
  YS02001622YS02001625 CONDUIT   1053.70     0  02:31      1.34    0.56    1.00
  YS02001625YS02001629 CONDUIT    757.10     0  03:15      1.08    0.36    1.00
  YS02001629YS02163301 CONDUIT   1139.02     0  02:32      1.45    1.40    1.00
  YS02001633YS02163601 CONDUIT   1323.29     0  01:08      1.68    1.39    1.00
  YS02001641YS02001644 CONDUIT   1314.82     0  01:08      1.67    4.25    1.00
  YS02001644YS02001647 CONDUIT   1887.23     0  01:09      2.40    1.11    1.00
  YS02001647YS02001649 CONDUIT   1903.18     0  01:09      2.42    1.00    1.00
  YS02001649YS02001757 CONDUIT   2200.42     0  01:09      2.80    1.34    1.00
  YS02001652YS02001649 CONDUIT   2429.28     0  01:50      3.09    1.20    1.00
  YS02001655YS02001652 CONDUIT   2429.30     0  02:32      3.09    1.18    1.00
  YS02001658YS02001655 CONDUIT   2731.29     0  02:06      3.48    1.16    1.00
  YS02001661YS02001658 CONDUIT   2783.75     0  01:54      3.54    1.09    1.00
  YS02001664YS02001661 CONDUIT   2783.71     0  01:54      3.54    0.87    1.00
  YS02001745YS02001748 CONDUIT   3122.08     0  02:10      3.98    1.20    1.00
  YS02001748YS02001751 CONDUIT   2353.31     0  02:22      3.00    1.19    1.00
  YS02001751YS02001754 CONDUIT   2353.32     0  02:14      3.00    1.13    1.00
  YS02001754YS02001757 CONDUIT   2353.58     0  02:22      3.00    0.95    1.00
  YS02001757CaochengTiaoxuchi CONDUIT   3543.89     0  01:11      4.82    1.53    1.00
  YS02001759YS02001757 CONDUIT   1485.05     0  01:50      1.89    1.06    1.00
  YS02001762YS02001759 CONDUIT    830.18     0  01:10      1.06    0.96    1.00
  YS02001765YS02001762 CONDUIT    830.67     0  01:10      1.06    0.78    1.00
  YS02001767YS02001765 CONDUIT    829.19     0  01:10      1.06    1.04    1.00
  YS02001770YS02001767 CONDUIT    830.33     0  01:10      1.08    3.29    1.00
  YS02001774YS02001770 CONDUIT    852.14     0  02:34      1.08    0.54    1.00
  YS02001779YS02001774 CONDUIT    851.77     0  02:35      1.08    0.43    1.00
  YS02001783YS02001784 CONDUIT   1321.63     0  02:02      2.63    1.82    1.00
  YS02001784YS02001785 CONDUIT   1323.06     0  02:23      2.63    3.08    1.00
  YS02001786YS02001788 CONDUIT   1322.88     0  02:23      2.74    2.55    0.93
  YS02001788YS02001790 CONDUIT   1352.91     0  02:01      2.94    1.00    0.91
  YS02001790YS02001791 CONDUIT   1409.40     0  02:01      3.57    1.53    0.76
  YS02001791YS02001793 CONDUIT   1452.49     0  02:01      6.85    0.62    0.50
  YS02001793JiankangQianchi CONDUIT   1561.34     0  02:01      3.01    0.12    0.68
  YS02001882YS02001884 CONDUIT    206.39     0  01:08      0.53    0.24    1.00
  YS02001884YS02001887 CONDUIT    265.47     0  01:08      0.50    0.35    1.00
  YS02001887YS02001890 CONDUIT   2052.03     0  01:58      2.61    3.51    1.00
  YS02001890YS02001895 CONDUIT    646.34     0  01:08      0.82    0.30    1.00
  YS02001895YS02001898 CONDUIT    647.46     0  01:08      0.85    1.12    1.00
  YS02001898YS02001901 CONDUIT    649.41     0  01:08      0.83    0.42    1.00
  YS02001901YS02001904 CONDUIT    649.37     0  01:08      0.83    1.01    1.00
  YS02001904YS02001907 CONDUIT    646.00     0  01:08      0.82    0.23    1.00
  YS02001907YS02006553 CONDUIT   2160.64     0  01:54      2.40    2.54    1.00
  YS02001910YS02001907 CONDUIT   1993.05     0  02:34      2.54    1.12    1.00
  YS02001915YS02001910 CONDUIT   1993.20     0  02:35      2.54    0.99    1.00
  YS02001918YS02001915 CONDUIT   1221.69     0  02:08      1.56    0.67    1.00
  YS02001920YS02001918 CONDUIT   1681.50     0  02:31      2.14    1.63    1.00
  YS02001923YS02001920 CONDUIT   1679.06     0  02:31      2.14    0.75    1.00
  YS02001926YS02001923 CONDUIT   1679.05     0  02:31      2.14    2.40    1.00
  YS02001929YS02001926 CONDUIT   1678.52     0  02:31      2.14    0.80    1.00
  YS02006553YS02006556 CONDUIT   2160.65     0  01:54      2.75    1.85    1.00
  YS02006556YS02006558 CONDUIT   2160.73     0  01:54      2.75    1.71    1.00
  YS02006558YS02006561 CONDUIT   1321.90     0  02:02      4.68    2.92    1.00
  YS02006561YS02001783 CONDUIT   1321.93     0  02:23      2.63    0.68    1.00
  YS02163301YS02001633 CONDUIT   1138.92     0  02:33      1.45    1.07    1.00
  YS02163601YS02164001 CONDUIT   1320.56     0  01:08      1.68    1.17    1.00
  YS02164001YS02001641 CONDUIT   1316.80     0  01:08      1.68    1.80    1.00
  YSB1154YSB6556       CONDUIT    725.69     0  02:09      1.89    1.30    1.00
  YSB1171HS02004479    CONDUIT    584.05     0  01:08      1.16    0.39    1.00
  YSB1174YSB1171       CONDUIT    750.69     0  02:15      1.95    1.15    1.00
  YSB6556YSB1171       CONDUIT    639.84     0  02:41      1.66    0.66    1.00
  CC-R1                PUMP       683.00     0  00:00              1.00
  CC-R2                PUMP       683.00     0  00:00              1.00
  CC-S1                PUMP       200.00     0  00:00              1.00
  CC-S2                PUMP       200.00     0  00:00              1.00
  JK-R1                PUMP      1000.00     0  00:00              1.00
  JK-R2                PUMP      1000.00     0  00:00              1.00
  JK-S                 PUMP       300.00     0  00:00              1.00
  
  
  ***************************
  Flow Classification Summary
  ***************************
  
  -------------------------------------------------------------------------------------
                      Adjusted    ---------- Fraction of Time in Flow Class ---------- 
                       /Actual         Up    Down  Sub   Sup   Up    Down  Norm  Inlet 
  Conduit               Length    Dry  Dry   Dry   Crit  Crit  Crit  Crit  Ltd   Ctrl  
  -------------------------------------------------------------------------------------
  HS02004478WS02006287    1.00   0.26  0.00  0.00  0.55  0.19  0.00  0.00  0.04  0.00
  HS02004479HS02004480    1.00   0.07  0.00  0.00  0.93  0.00  0.00  0.00  0.17  0.00
  HS02004480HS02004478    1.00   0.25  0.00  0.00  0.54  0.00  0.00  0.20  0.00  0.00
  HS02004770HS02004777    1.00   0.00  0.25  0.00  0.75  0.00  0.00  0.00  0.00  0.00
  HS02004777HS02004785    1.00   0.00  0.00  0.00  1.00  0.00  0.00  0.00  0.17  0.00
  HS02004785HS02004788    1.00   0.00  0.00  0.00  1.00  0.00  0.00  0.00  0.00  0.00
  HS02004788HS02004792    1.00   0.00  0.00  0.00  0.98  0.02  0.00  0.00  0.42  0.00
  HS02004792HS02004799    1.00   0.00  0.00  0.00  0.98  0.02  0.00  0.00  0.40  0.00
  HS02004799HS02004480    1.00   0.01  0.07  0.00  0.73  0.00  0.19  0.00  0.00  0.00
  HS02004802HS02004478    1.00   0.25  0.01  0.00  0.74  0.00  0.00  0.00  0.01  0.00
  HS02004807HS02004802    1.00   0.25  0.00  0.00  0.74  0.00  0.00  0.01  0.00  0.00
  HS02004817HS02004807    1.00   0.00  0.25  0.00  0.75  0.00  0.00  0.00  0.01  0.00
  HS02004817HS02004824    1.00   0.00  0.00  0.00  1.00  0.00  0.00  0.00  0.40  0.00
  HS02004824HS02004830    1.00   0.00  0.00  0.00  1.00  0.00  0.00  0.00  0.00  0.00
  HS02004830HS02004837    1.00   0.00  0.00  0.00  1.00  0.00  0.00  0.00  0.41  0.00
  HS02004837HS02004842    1.00   0.00  0.00  0.00  0.99  0.01  0.00  0.00  0.21  0.00
  HS02004842HS02004848    1.00   0.00  0.25  0.00  0.75  0.00  0.00  0.00  0.01  0.00
  HS02004848HS02004852    1.00   0.25  0.00  0.00  0.75  0.00  0.00  0.00  0.18  0.00
  HS02004852HS02004856    1.00   0.25  0.00  0.00  0.75  0.00  0.00  0.00  0.13  0.00
  HS02004856HS02004862    1.00   0.00  0.26  0.00  0.74  0.00  0.00  0.00  0.19  0.00
  HS02004862HS02004870    1.00   0.00  0.00  0.00  1.00  0.00  0.00  0.00  0.01  0.00
  HS02004870HS02004876    1.00   0.01  0.00  0.00  0.97  0.02  0.00  0.00  0.35  0.00
  HS02004876HS02004881    1.00   0.04  0.00  0.00  0.81  0.15  0.00  0.00  0.00  0.00
  HS02004881HS02006253    1.00   0.07  0.04  0.00  0.72  0.01  0.00  0.16  0.19  0.00
  HS02004901HS02004770    1.00   0.25  0.00  0.00  0.75  0.00  0.00  0.00  0.00  0.00
  WS02004401WS02004402    1.00   0.05  0.00  0.00  0.95  0.00  0.00  0.00  0.00  0.00
  WS02006109WS02006110    1.00   0.00  0.02  0.00  0.96  0.00  0.02  0.00  0.00  0.00
  WS02006110WS02006113    1.00   0.02  0.02  0.00  0.96  0.00  0.00  0.00  0.00  0.00
  WS02006111WS02006112    1.00   0.04  0.00  0.00  0.95  0.00  0.00  0.00  0.31  0.00
  WS02006112WS02006115    1.00   0.04  0.01  0.00  0.95  0.00  0.01  0.00  0.00  0.00
  WS02006113WS02006111    1.00   0.04  0.00  0.00  0.55  0.41  0.00  0.00  0.06  0.00
  WS02006115WS02006116    1.00   0.05  0.00  0.00  0.79  0.00  0.00  0.17  0.00  0.00
  WS02006116WS02004401    1.00   0.05  0.00  0.00  0.95  0.00  0.00  0.00  0.00  0.00
  WS02006228WS02006109    1.00   0.00  0.00  0.00  1.00  0.00  0.00  0.00  0.01  0.00
  WS02006229WS02006228    1.00   0.00  0.00  0.00  0.98  0.00  0.00  0.02  0.00  0.00
  WS02006230WS02006229    1.00   0.00  0.00  0.00  0.97  0.00  0.00  0.03  0.00  0.00
  WS02006231WS02006230    1.00   0.00  0.00  0.00  0.73  0.00  0.27  0.00  0.00  0.00
  WS02006232WS02006231    1.00   0.00  0.00  0.00  0.99  0.00  0.01  0.00  0.00  0.00
  WS02006234WS02006232    1.00   0.00  0.00  0.00  0.99  0.01  0.00  0.00  0.02  0.00
  WS02006235WS02006234    1.00   0.00  0.00  0.00  0.94  0.00  0.06  0.00  0.00  0.00
  WS02006238WS02006235    1.00   0.00  0.00  0.00  1.00  0.00  0.00  0.00  0.00  0.00
  WS02006239WS02006238    1.00   0.00  0.00  0.00  1.00  0.00  0.00  0.00  0.12  0.00
  WS02006240WS02006239    1.00   0.00  0.00  0.00  0.84  0.00  0.00  0.16  0.01  0.00
  WS02006242WS02006240    1.00   0.01  0.00  0.00  0.99  0.00  0.01  0.00  0.00  0.00
  WS02006243WS02006242    1.00   0.01  0.00  0.00  0.98  0.00  0.00  0.02  0.20  0.00
  WS02006245WS02006243    1.00   0.00  0.00  0.00  0.91  0.00  0.00  0.09  0.00  0.00
  WS02006247WS02006245    1.00   0.00  0.00  0.00  0.98  0.00  0.00  0.02  0.00  0.00
  WS02006248WS02006247    1.00   0.00  0.00  0.00  0.98  0.00  0.00  0.01  0.15  0.00
  WS02006249WS02006248    1.00   0.00  0.00  0.00  0.79  0.00  0.21  0.00  0.00  0.00
  WS02006251WS02006249    1.00   0.00  0.00  0.00  1.00  0.00  0.00  0.00  0.20  0.00
  WS02006252WS02006251    1.00   0.00  0.24  0.00  0.72  0.00  0.03  0.00  0.00  0.00
  WS02006253WS02006251    1.00   0.00  0.00  0.00  0.93  0.00  0.07  0.00  0.00  0.00
  WS02006256WS02006235    1.00   0.00  0.00  0.00  1.00  0.00  0.00  0.00  0.00  0.00
  WS02006280WS02006229    1.00   0.27  0.00  0.00  0.55  0.08  0.00  0.10  0.03  0.00
  WS02006284WS02006280    1.00   0.26  0.00  0.00  0.54  0.00  0.00  0.19  0.00  0.00
  WS02006287WS02006284    1.00   0.21  0.06  0.00  0.54  0.19  0.00  0.01  0.18  0.00
  YS02001580YS02001583    1.00   0.28  0.00  0.00  0.72  0.00  0.00  0.00  0.14  0.00
  YS02001583YS02001586    1.00   0.25  0.02  0.00  0.72  0.00  0.00  0.00  0.15  0.00
  YS02001586YS02001590    1.00   0.25  0.00  0.00  0.73  0.01  0.00  0.01  0.14  0.00
  YS02001590YS02001593    1.00   0.25  0.00  0.00  0.59  0.00  0.15  0.00  0.00  0.00
  YS02001593YS02001596    1.00   0.25  0.00  0.00  0.61  0.01  0.00  0.12  0.02  0.00
  YS02001596YS02001600    1.00   0.26  0.00  0.00  0.67  0.01  0.00  0.06  0.04  0.00
  YS02001600YS02001601    1.00   0.25  0.01  0.00  0.74  0.00  0.00  0.00  0.00  0.00
  YS02001601YS02001602    1.00   0.25  0.00  0.00  0.75  0.00  0.00  0.00  0.00  0.00
  YS02001602YS02001605    1.00   0.25  0.00  0.00  0.75  0.00  0.00  0.00  0.00  0.00
  YS02001605YS02001607    1.00   0.25  0.00  0.00  0.75  0.00  0.00  0.00  0.00  0.00
  YS02001607YS02001610    1.00   0.26  0.00  0.00  0.74  0.00  0.00  0.00  0.00  0.00
  YS02001610YS02001613    1.00   0.25  0.00  0.00  0.75  0.00  0.00  0.00  0.00  0.00
  YS02001613YS02001616    1.00   0.25  0.00  0.00  0.75  0.00  0.00  0.00  0.00  0.00
  YS02001616YS02001619    1.00   0.25  0.00  0.00  0.75  0.00  0.00  0.00  0.00  0.00
  YS02001619YS02001622    1.00   0.25  0.00  0.00  0.74  0.01  0.00  0.00  0.00  0.00
  YS02001622YS02001625    1.00   0.25  0.00  0.00  0.74  0.01  0.00  0.00  0.01  0.00
  YS02001625YS02001629    1.00   0.25  0.02  0.00  0.67  0.00  0.05  0.00  0.00  0.00
  YS02001629YS02163301    1.00   0.26  0.00  0.00  0.74  0.00  0.00  0.00  0.00  0.00
  YS02001633YS02163601    1.00   0.00  0.01  0.00  0.99  0.00  0.00  0.00  0.24  0.00
  YS02001641YS02001644    1.00   0.00  0.01  0.00  0.99  0.00  0.00  0.00  0.00  0.00
  YS02001644YS02001647    1.00   0.00  0.26  0.00  0.74  0.00  0.00  0.00  0.00  0.00
  YS02001647YS02001649    1.00   0.00  0.26  0.00  0.74  0.00  0.00  0.00  0.04  0.00
  YS02001649YS02001757    1.00   0.00  0.00  0.00  1.00  0.00  0.00  0.00  0.26  0.00
  YS02001652YS02001649    1.00   0.00  0.00  0.00  0.99  0.01  0.00  0.00  0.23  0.00
  YS02001655YS02001652    1.00   0.00  0.00  0.00  0.72  0.00  0.00  0.28  0.03  0.00
  YS02001658YS02001655    1.00   0.00  0.26  0.00  0.69  0.05  0.00  0.00  0.07  0.00
  YS02001661YS02001658    1.00   0.26  0.00  0.00  0.64  0.10  0.00  0.00  0.12  0.00
  YS02001664YS02001661    1.00   0.25  0.00  0.00  0.71  0.04  0.00  0.00  0.24  0.00
  YS02001745YS02001748    1.00   0.00  0.00  0.00  0.64  0.00  0.00  0.36  0.07  0.00
  YS02001748YS02001751    1.00   0.00  0.00  0.00  0.97  0.03  0.00  0.00  0.30  0.00
  YS02001751YS02001754    1.00   0.00  0.00  0.00  0.72  0.00  0.00  0.28  0.03  0.00
  YS02001754YS02001757    1.00   0.00  0.00  0.00  0.99  0.01  0.00  0.00  0.27  0.00
  YS02001757CaochengTiaoxuchi    1.00   0.00  0.00  0.00  0.97  0.03  0.00  0.00  0.26  0.00
  YS02001759YS02001757    1.00   0.00  0.00  0.00  0.99  0.01  0.00  0.00  0.13  0.00
  YS02001762YS02001759    1.00   0.00  0.00  0.00  1.00  0.00  0.00  0.00  0.02  0.00
  YS02001765YS02001762    1.00   0.00  0.00  0.00  1.00  0.00  0.00  0.00  0.22  0.00
  YS02001767YS02001765    1.00   0.00  0.00  0.00  1.00  0.00  0.00  0.00  0.00  0.00
  YS02001770YS02001767    1.00   0.00  0.00  0.00  1.00  0.00  0.00  0.00  0.00  0.00
  YS02001774YS02001770    1.00   0.00  0.25  0.00  0.74  0.00  0.00  0.00  0.00  0.00
  YS02001779YS02001774    1.00   0.00  0.00  0.00  1.00  0.00  0.00  0.00  0.25  0.00
  YS02001783YS02001784    1.00   0.00  0.27  0.00  0.73  0.00  0.00  0.00  0.02  0.00
  YS02001784YS02001785    1.00   0.00  0.00  0.00  1.00  0.00  0.00  0.00  0.24  0.00
  YS02001786YS02001788    1.00   0.00  0.00  0.00  0.79  0.21  0.00  0.00  0.00  0.00
  YS02001788YS02001790    1.00   0.00  0.00  0.00  0.48  0.52  0.00  0.00  0.42  0.00
  YS02001790YS02001791    1.00   0.00  0.00  0.00  0.03  0.97  0.00  0.00  0.18  0.00
  YS02001791YS02001793    1.00   0.00  0.00  0.00  0.00  1.00  0.00  0.00  0.07  0.00
  YS02001793JiankangQianchi    1.00   0.00  0.00  0.00  0.61  0.38  0.00  0.00  0.66  0.00
  YS02001882YS02001884    1.00   0.26  0.00  0.00  0.74  0.00  0.00  0.00  0.00  0.00
  YS02001884YS02001887    1.00   0.12  0.11  0.00  0.77  0.00  0.00  0.00  0.00  0.00
  YS02001887YS02001890    1.00   0.00  0.00  0.00  0.94  0.00  0.06  0.00  0.00  0.00
  YS02001890YS02001895    1.00   0.01  0.25  0.00  0.74  0.00  0.00  0.00  0.00  0.00
  YS02001895YS02001898    1.00   0.26  0.00  0.00  0.73  0.00  0.01  0.00  0.00  0.00
  YS02001898YS02001901    1.00   0.26  0.00  0.00  0.74  0.00  0.00  0.00  0.00  0.00
  YS02001901YS02001904    1.00   0.26  0.00  0.00  0.74  0.00  0.00  0.00  0.00  0.00
  YS02001904YS02001907    1.00   0.01  0.26  0.00  0.74  0.00  0.00  0.00  0.00  0.00
  YS02001907YS02006553    1.00   0.01  0.04  0.00  0.95  0.00  0.00  0.00  0.01  0.00
  YS02001910YS02001907    1.00   0.00  0.00  0.00  0.94  0.01  0.00  0.05  0.20  0.00
  YS02001915YS02001910    1.00   0.00  0.00  0.00  0.96  0.04  0.00  0.00  0.21  0.00
  YS02001918YS02001915    1.00   0.00  0.01  0.00  0.96  0.03  0.00  0.00  0.21  0.00
  YS02001920YS02001918    1.00   0.00  0.01  0.00  0.99  0.00  0.00  0.00  0.00  0.00
  YS02001923YS02001920    1.00   0.00  0.00  0.00  1.00  0.00  0.00  0.00  0.48  0.00
  YS02001926YS02001923    1.00   0.00  0.15  0.00  0.50  0.00  0.35  0.00  0.00  0.00
  YS02001929YS02001926    1.00   0.00  0.25  0.00  0.74  0.01  0.00  0.00  0.24  0.00
  YS02006553YS02006556    1.00   0.03  0.00  0.00  0.97  0.00  0.00  0.00  0.06  0.00
  YS02006556YS02006558    1.00   0.00  0.01  0.00  0.99  0.00  0.00  0.00  0.00  0.00
  YS02006558YS02006561    1.00   0.27  0.00  0.00  0.50  0.24  0.00  0.00  0.18  0.00
  YS02006561YS02001783    1.00   0.27  0.00  0.00  0.53  0.21  0.00  0.00  0.18  0.00
  YS02163301YS02001633    1.00   0.00  0.26  0.00  0.74  0.00  0.00  0.00  0.00  0.00
  YS02163601YS02164001    1.00   0.00  0.16  0.00  0.84  0.00  0.00  0.00  0.00  0.00
  YS02164001YS02001641    1.00   0.02  0.15  0.00  0.84  0.00  0.00  0.00  0.09  0.00
  YSB1154YSB6556          1.00   0.25  0.00  0.00  0.75  0.00  0.00  0.00  0.01  0.00
  YSB1171HS02004479       1.00   0.08  0.00  0.00  0.89  0.00  0.00  0.03  0.15  0.00
  YSB1174YSB1171          1.00   0.10  0.09  0.00  0.81  0.00  0.00  0.00  0.00  0.00
  YSB6556YSB1171          1.00   0.08  0.17  0.00  0.75  0.00  0.00  0.00  0.00  0.00
  
  
  *************************
  Conduit Surcharge Summary
  *************************
  
  ----------------------------------------------------------------------------
                                                           Hours        Hours 
                         --------- Hours Full --------   Above Full   Capacity
  Conduit                Both Ends  Upstream  Dnstream   Normal Flow   Limited
  ----------------------------------------------------------------------------
  HS02004478WS02006287        2.03      2.03      2.11      0.01         0.01
  HS02004479HS02004480        2.14      2.14      2.15      0.01         0.01
  HS02004480HS02004478        2.09      2.14      2.09      2.53         2.09
  HS02004770HS02004777        2.09      2.09      2.10      0.04         0.03
  HS02004777HS02004785        2.06      2.06      2.10      0.01         0.01
  HS02004785HS02004788        2.05      2.06      2.05      1.97         0.50
  HS02004788HS02004792        2.05      2.05      2.12      0.01         0.01
  HS02004792HS02004799        2.12      2.12      2.16      0.01         0.01
  HS02004799HS02004480        2.14      2.14      2.16      2.19         0.01
  HS02004802HS02004478        2.10      2.10      2.14      1.84         0.01
  HS02004807HS02004802        2.13      2.13      2.14      1.93         1.93
  HS02004817HS02004807        2.13      2.13      2.34      0.01         0.01
  HS02004817HS02004824        2.06      2.06      2.34      0.01         0.01
  HS02004824HS02004830        2.03      2.03      2.06      0.61         0.62
  HS02004830HS02004837        2.00      2.00      2.03      0.44         0.44
  HS02004837HS02004842        2.00      2.00      2.09      0.01         0.01
  HS02004842HS02004848        1.99      1.99      2.09      0.01         0.01
  HS02004848HS02004852        1.99      1.99      2.01      0.02         0.10
  HS02004852HS02004856        2.01      2.01      2.02      0.87         0.78
  HS02004856HS02004862        1.99      2.00      2.02      0.02         0.01
  HS02004862HS02004870        2.01      2.02      2.03      0.37         0.35
  HS02004870HS02004876        2.03      2.03      2.07      0.01         0.01
  HS02004876HS02004881        2.06      2.07      2.06      2.49         2.05
  HS02004881HS02006253        2.06      2.06      2.87      0.01         0.01
  HS02004901HS02004770        2.08      2.08      2.09      1.38         0.01
  WS02004401WS02004402        0.01      0.96      0.01      2.46         0.01
  WS02006109WS02006110        2.89      2.89      2.90      2.90         0.01
  WS02006110WS02006113        2.18      2.18      2.90      1.48         0.01
  WS02006111WS02006112        2.08      2.08      2.88      0.01         0.01
  WS02006112WS02006115        1.92      1.92      2.53      1.50         0.01
  WS02006113WS02006111        2.09      2.18      2.09      2.45         2.09
  WS02006115WS02006116        1.63      1.93      1.63      2.52         1.63
  WS02006116WS02004401        0.96      1.88      0.96      2.59         0.96
  WS02006228WS02006109        2.90      2.90      2.90      3.00         2.90
  WS02006229WS02006228        2.90      2.90      2.90      2.94         2.90
  WS02006230WS02006229        2.90      2.90      2.90      3.21         0.71
  WS02006231WS02006230        2.85      2.86      2.89      3.12         2.18
  WS02006232WS02006231        2.89      2.89      2.89      0.04         0.26
  WS02006234WS02006232        2.88      2.88      2.89      0.03         0.01
  WS02006235WS02006234        2.87      2.88      2.87      3.04         2.16
  WS02006238WS02006235        2.88      2.88      2.88      0.02         0.63
  WS02006239WS02006238        2.87      2.87      2.88      2.53         0.31
  WS02006240WS02006239        2.87      2.87      2.87      2.53         0.31
  WS02006242WS02006240        2.87      2.87      2.87      2.62         2.16
  WS02006243WS02006242        2.86      2.86      2.87      0.01         0.01
  WS02006245WS02006243        2.86      2.87      2.86      0.41         0.30
  WS02006247WS02006245        2.87      2.87      2.87      2.92         0.64
  WS02006248WS02006247        2.87      2.87      2.87      0.02         0.01
  WS02006249WS02006248        2.87      2.87      2.87      0.71         0.01
  WS02006251WS02006249        2.87      2.88      2.87      3.01         2.87
  WS02006252WS02006251        3.00      3.00      3.00      2.80         1.77
  WS02006253WS02006251        2.88      2.88      2.89      2.21         0.01
  WS02006256WS02006235        3.10      3.10      3.53      0.45         0.01
  WS02006280WS02006229        2.15      2.15      2.18      0.01         0.01
  WS02006284WS02006280        2.12      2.12      2.14      0.01         0.01
  WS02006287WS02006284        2.08      2.08      2.12      1.99         1.97
  YS02001580YS02001583        2.20      2.20      2.21      0.01         0.01
  YS02001583YS02001586        2.20      2.20      2.27      0.01         0.01
  YS02001586YS02001590        2.28      2.28      2.33      0.01         0.01
  YS02001590YS02001593        2.32      2.32      2.33      2.40         0.01
  YS02001593YS02001596        2.33      2.33      2.38      0.01         0.01
  YS02001596YS02001600        2.40      2.40      2.46      0.01         0.01
  YS02001600YS02001601        2.50      2.50      2.65      0.01         0.01
  YS02001601YS02001602        2.60      2.60      2.67      2.41         0.01
  YS02001602YS02001605        2.58      2.58      2.60      2.96         0.01
  YS02001605YS02001607        2.56      2.58      2.58      2.53         2.49
  YS02001607YS02001610        2.32      2.32      2.34      0.01         0.01
  YS02001610YS02001613        2.32      2.32      2.34      0.01         0.01
  YS02001613YS02001616        2.29      2.29      2.32      0.01         0.01
  YS02001616YS02001619        2.28      2.28      2.29      1.69         1.47
  YS02001619YS02001622        2.28      2.28      2.29      2.24         2.16
  YS02001622YS02001625        2.29      2.29      2.42      0.01         0.01
  YS02001625YS02001629        2.25      2.25      2.42      0.01         0.01
  YS02001629YS02163301        2.44      2.44      2.45      1.30         0.03
  YS02001633YS02163601        2.47      2.47      2.51      0.04         0.04
  YS02001641YS02001644        2.47      2.47      2.47      2.71         2.43
  YS02001644YS02001647        2.34      2.34      2.47      0.03         0.01
  YS02001647YS02001649        2.34      2.34      2.46      0.01         0.01
  YS02001649YS02001757        2.46      2.46      2.54      0.05         0.04
  YS02001652YS02001649        2.33      2.33      2.46      0.87         0.88
  YS02001655YS02001652        2.17      2.17      2.31      0.86         0.86
  YS02001658YS02001655        1.95      1.95      2.17      0.76         0.76
  YS02001661YS02001658        1.75      1.75      1.95      0.71         0.71
  YS02001664YS02001661        1.19      1.19      1.81      0.01         0.01
  YS02001745YS02001748        1.23      1.23      1.90      0.41         0.41
  YS02001748YS02001751        1.95      1.95      2.11      0.54         0.54
  YS02001751YS02001754        2.11      2.11      2.26      0.51         0.52
  YS02001754YS02001757        2.30      2.30      2.54      0.01         0.01
  YS02001757CaochengTiaoxuchi        2.45      2.54      2.76      0.90         0.79
  YS02001759YS02001757        2.47      2.47      2.54      0.18         0.15
  YS02001762YS02001759        2.44      2.44      2.47      0.01         0.02
  YS02001765YS02001762        2.40      2.40      2.44      0.01         0.01
  YS02001767YS02001765        2.37      2.37      2.40      0.01         0.02
  YS02001770YS02001767        2.37      2.37      2.37      1.72         0.55
  YS02001774YS02001770        2.35      2.35      2.42      0.01         0.01
  YS02001779YS02001774        2.24      2.24      2.42      0.01         0.01
  YS02001783YS02001784        2.03      2.04      2.03      2.10         2.03
  YS02001784YS02001785        1.97      2.03      1.97      2.17         1.97
  YS02001786YS02001788        0.01      1.97      0.01      2.14         0.01
  YS02001790YS02001791        0.01      0.01      0.01      2.02         0.01
  YS02001793JiankangQianchi        0.01      0.01      3.71      0.01         0.01
  YS02001882YS02001884        2.01      2.01      2.02      0.01         0.01
  YS02001884YS02001887        2.03      2.03      2.04      0.01         0.01
  YS02001887YS02001890        2.05      2.05      2.05      1.87         0.01
  YS02001890YS02001895        2.00      2.00      2.06      0.01         0.01
  YS02001895YS02001898        2.00      2.00      2.00      0.02         0.01
  YS02001898YS02001901        2.01      2.01      2.03      0.01         0.01
  YS02001901YS02001904        2.02      2.02      2.03      0.01         0.01
  YS02001904YS02001907        2.02      2.02      2.14      0.01         0.01
  YS02001907YS02006553        2.17      2.17      2.20      1.02         1.02
  YS02001910YS02001907        2.05      2.05      2.13      1.56         1.56
  YS02001915YS02001910        2.01      2.01      2.05      0.01         0.07
  YS02001918YS02001915        1.96      1.96      2.01      0.01         0.01
  YS02001920YS02001918        1.96      1.96      1.97      1.02         0.01
  YS02001923YS02001920        1.94      1.94      1.97      0.01         0.01
  YS02001926YS02001923        1.82      1.82      1.83      1.40         0.01
  YS02001929YS02001926        1.61      1.62      1.83      0.01         0.01
  YS02006553YS02006556        2.09      2.09      2.14      0.89         0.90
  YS02006556YS02006558        2.12      2.12      2.14      0.86         0.01
  YS02006558YS02006561        1.98      2.09      1.98      2.16         1.98
  YS02006561YS02001783        1.94      1.94      2.04      0.01         0.01
  YS02163301YS02001633        2.45      2.45      2.49      1.08         0.01
  YS02163601YS02164001        2.46      2.46      2.51      0.02         0.01
  YS02164001YS02001641        2.46      2.46      2.47      1.54         1.58
  YSB1154YSB6556              2.16      2.16      2.20      1.45         0.01
  YSB1171HS02004479           2.11      2.11      2.20      0.01         0.01
  YSB1174YSB1171              2.18      2.18      2.27      1.01         1.01
  YSB6556YSB1171              2.16      2.16      2.33      0.01         0.01
  
  
  ***************
  Pumping Summary
  ***************
  
  ---------------------------------------------------------------------------------------------------------
                                                  Min       Avg       Max     Total     Power    % Time Off
                        Percent   Number of      Flow      Flow      Flow    Volume     Usage    Pump Curve
  Pump                 Utilized   Start-Ups       LPS       LPS       LPS  10^6 ltr     Kw-hr    Low   High
  ---------------------------------------------------------------------------------------------------------
  CC-R1                   71.01           2      0.00    683.00    683.00     6.984    141.69    0.0   63.9
  CC-R2                   69.19           2      0.00    683.00    683.00     6.805    138.38    0.0   65.5
  CC-S1                   73.51           2      0.00    200.00    200.00     2.117     12.02    0.0   57.1
  CC-S2                   72.31           2      0.00    200.00    200.00     2.082     11.71    0.0   58.0
  JK-R1                   47.95           4      0.00   1000.00   1000.00     6.905     75.54    0.0    0.0
  JK-R2                    0.33           1      0.00   1000.00   1000.00     0.047      0.36    0.0    0.0
  JK-S                    63.38           2      0.00    300.00    300.00     2.738     40.24    0.0    0.0
  

  Analysis begun on:  Tue Jun  9 17:05:10 2026
  Analysis ended on:  Tue Jun  9 17:05:11 2026
  Total elapsed time: 00:00:01