
  EPA STORM WATER MANAGEMENT MODEL - VERSION 5.2 (Build 5.2.4)
  PYSWMM TOOLKIT API - VERSION v1.0 (2026-02-26)
  ------------------------------------------------------------

  WARNING 03: negative offset ignored for Link YS02001904YS02001907
  
  ****************
  Analysis Options
  ****************
  Flow Units ............... LPS
  Process Models:
    Rainfall/Runoff ........ YES
    RDII ................... NO
    Snowmelt ............... NO
    Groundwater ............ NO
    Flow Routing ........... YES
    Ponding Allowed ........ NO
    Water Quality .......... NO
  Infiltration Method ...... HORTON
  Flow Routing Method ...... DYNWAVE
  Surcharge Method ......... EXTRAN
  Starting Date ............ 08/28/2015 08:00:00
  Ending Date .............. 08/28/2015 12:00:00
  Antecedent Dry Days ...... 8.0
  Report Time Step ......... 00:01:00
  Wet Time Step ............ 00:01:00
  Dry Time Step ............ 00:01:00
  Routing Time Step ........ 30.00 sec
  Variable Time Step ....... YES
  Maximum Trials ........... 8
  Number of Threads ........ 4
  Head Tolerance ........... 0.001500 m
  
  
  **************************        Volume         Depth
  Runoff Quantity Continuity     hectare-m            mm
  **************************     ---------       -------
  Total Precipitation ......        38.303       632.290
  Evaporation Loss .........         0.000         0.000
  Infiltration Loss ........         0.194         3.198
  Surface Runoff ...........        37.940       626.307
  Final Storage ............         0.184         3.033
  Continuity Error (%) .....        -0.039
  
  
  **************************        Volume        Volume
  Flow Routing Continuity        hectare-m      10^6 ltr
  **************************     ---------     ---------
  Dry Weather Inflow .......         0.026         0.261
  Wet Weather Inflow .......        37.940       379.401
  Groundwater Inflow .......         0.000         0.000
  RDII Inflow ..............         0.000         0.000
  External Inflow ..........         0.015         0.148
  External Outflow .........         3.475        34.753
  Flooding Loss ............        34.347       343.476
  Evaporation Loss .........         0.000         0.000
  Exfiltration Loss ........         0.000         0.000
  Initial Stored Volume ....         0.243         2.431
  Final Stored Volume ......         0.404         4.045
  Continuity Error (%) .....        -0.009
  
  
  *************************
  Highest Continuity Errors
  *************************
  Node YS02001884 (8.13%)
  Node YS02001583 (-5.58%)
  
  
  ***************************
  Time-Step Critical Elements
  ***************************
  Link YS02001791YS02001793 (47.13%)
  Link WS02006280WS02006229 (24.49%)
  Link WS02006238WS02006235 (12.48%)
  Link WS02006115WS02006116 (1.65%)
  Link YS02001661YS02001658 (1.44%)
  
  
  ********************************
  Highest Flow Instability Indexes
  ********************************
  Link WS02006238WS02006235 (60)
  Link YS02001602YS02001605 (60)
  Link YS02001605YS02001607 (59)
  Link WS02006280WS02006229 (56)
  Link WS02006229WS02006228 (55)
  
  
  *********************************
  Most Frequent Nonconverging Nodes
  *********************************
  Node CC-1 (22.61%)
  Node CC-2 (22.61%)
  Node JK-1 (22.61%)
  Node JK-2 (22.61%)
  Node WS02004402 (22.61%)
  
  
  *************************
  Routing Time Step Summary
  *************************
  Minimum Time Step           :     0.03 sec
  Average Time Step           :     2.14 sec
  Maximum Time Step           :     9.91 sec
  % of Time in Steady State   :     0.00
  Average Iterations per Step :     5.02
  % of Steps Not Converging   :    22.61
  Time Step Frequencies       :
     30.000 - 13.228 sec      :     0.00 %
     13.228 -  5.833 sec      :     3.88 %
      5.833 -  2.572 sec      :     5.04 %
      2.572 -  1.134 sec      :    82.40 %
      1.134 -  0.500 sec      :     8.68 %
  
  
  ***************************
  Subcatchment Runoff Summary
  ***************************
  
  ------------------------------------------------------------------------------------------------------------------------------
                            Total      Total      Total      Total     Imperv       Perv      Total       Total     Peak  Runoff
                           Precip      Runon       Evap      Infil     Runoff     Runoff     Runoff      Runoff   Runoff   Coeff
  Subcatchment                 mm         mm         mm         mm         mm         mm         mm    10^6 ltr      LPS
  ------------------------------------------------------------------------------------------------------------------------------
  sub0                     632.29       0.00       0.00       1.01     586.92      43.21     630.14        0.51   460.70   0.997
  sub1                     632.29       0.00       0.00       1.58     561.22      67.71     628.93        4.18  3554.29   0.995
  sub10                    632.29       0.00       0.00       1.15     580.20      49.30     629.50        6.94  5959.90   0.996
  sub11                    632.29       0.00       0.00       1.15     580.37      49.32     629.70        7.32  6407.91   0.996
  sub12                    632.29       0.00       0.00       1.87     549.00      80.15     629.15        5.50  4920.75   0.995
  sub14                    632.29       0.00       0.00       1.29     573.99      55.46     629.45        5.99  5198.64   0.996
  sub15                    632.29       0.00       0.00       4.31     441.50     183.82     625.33       10.76  8793.61   0.989
  sub16                    632.29       0.00       0.00       4.74     422.77     202.67     625.44        6.55  5586.34   0.989
  sub17                    632.29       0.00       0.00       4.60     429.06     196.50     625.55        5.37  4562.83   0.989
  sub2                     632.29       0.00       0.00       5.31     397.09     224.81     621.90        5.80  4254.95   0.984
  sub22                    632.29       0.00       0.00       6.18     359.59     262.79     622.38       39.32 30783.34   0.984
  sub23                    632.29       0.00       0.00       5.31     397.46     226.70     624.16       29.77 24331.36   0.987
  sub3                     632.29       0.00       0.00       5.31     396.75     223.12     619.86       13.95  9590.21   0.980
  sub4                     632.29       0.00       0.00       1.58     559.83      67.46     627.29       13.09  9771.70   0.992
  sub5                     632.29       0.00       0.00       1.01     586.44      43.14     629.58        7.13  6078.52   0.996
  sub60                    632.29       0.00       0.00       1.72     555.18      73.93     629.11        8.27  7257.88   0.995
  sub61                    632.29       0.00       0.00       2.44     523.67     104.65     628.32       11.53 10115.30   0.994
  sub62                    632.29       0.00       0.00       1.15     580.15      49.29     629.44       17.25 14720.12   0.995
  sub63                    632.29       0.00       0.00       4.17     447.93     178.05     625.98       14.21 12036.17   0.990
  sub64                    632.29       0.00       0.00       2.15     535.85      92.17     628.02       15.09 12507.38   0.993
  sub65                    632.29       0.00       0.00       1.87     548.30      79.88     628.18       17.29 14141.04   0.994
  sub66                    632.29       0.00       0.00       4.17     447.02     176.00     623.02       29.05 20853.26   0.985
  sub67                    632.29       0.00       0.00       1.15     580.53      49.36     629.89       11.72 10465.93   0.996
  sub68                    632.29       0.00       0.00       2.01     542.46      86.17     628.63       17.30 14942.13   0.994
  sub69                    632.29       0.00       0.00       2.15     536.80      92.66     629.46       23.30 18874.09   0.996
  sub7                     632.29       0.00       0.00       1.29     574.13      55.49     629.62        2.12  1871.97   0.996
  sub70                    632.29       0.00       0.00       4.88     416.16     205.70     621.87       17.97 12110.60   0.984
  sub71                    632.29       0.00       0.00       1.15     579.80      49.24     629.04       16.45 13526.32   0.995
  sub72                    632.29       0.00       0.00       1.01     585.59      43.06     628.65        8.64  6797.24   0.994
  sub8                     632.29       0.00       0.00       1.29     574.03      55.47     629.50        4.02  3507.48   0.996
  sub9                     632.29       0.00       0.00       1.29     574.01      55.47     629.48        3.03  2632.84   0.996
  
  
  ******************
  Node Depth Summary
  ******************
  
  ---------------------------------------------------------------------------------
                                 Average  Maximum  Maximum  Time of Max    Reported
                                   Depth    Depth      HGL   Occurrence   Max Depth
  Node                 Type       Meters   Meters   Meters  days hr:min      Meters
  ---------------------------------------------------------------------------------
  HS02004478           JUNCTION     0.91     1.61    10.83     0  01:18        1.58
  HS02004479           JUNCTION     1.01     1.73    10.94     0  01:18        1.69
  HS02004480           JUNCTION     0.98     1.71    10.96     0  01:18        1.64
  HS02004770           JUNCTION     0.87     1.42    11.25     0  01:13        1.42
  HS02004777           JUNCTION     0.90     1.48    11.28     0  01:13        1.48
  HS02004785           JUNCTION     0.80     1.49    11.39     0  01:13        1.44
  HS02004788           JUNCTION     0.78     1.42    11.32     0  01:13        1.42
  HS02004792           JUNCTION     0.94     1.60    11.12     0  01:15        1.60
  HS02004799           JUNCTION     1.09     1.76    10.97     0  01:18        1.76
  HS02004802           JUNCTION     1.06     1.83    10.96     0  02:38        1.83
  HS02004807           JUNCTION     1.10     1.92    11.09     0  01:18        1.92
  HS02004817           JUNCTION     1.46     2.44    11.29     0  01:45        2.44
  HS02004824           JUNCTION     1.04     2.01    11.41     0  01:18        2.01
  HS02004830           JUNCTION     1.02     2.03    11.50     0  01:18        2.03
  HS02004837           JUNCTION     0.97     2.04    11.62     0  01:45        2.04
  HS02004842           JUNCTION     1.24     2.22    11.49     0  01:17        2.22
  HS02004848           JUNCTION     0.97     2.07    11.67     0  01:45        2.07
  HS02004852           JUNCTION     0.99     2.12    11.63     0  01:17        2.08
  HS02004856           JUNCTION     1.03     2.07    11.50     0  01:17        2.07
  HS02004862           JUNCTION     1.00     2.00    11.38     0  01:17        2.00
  HS02004870           JUNCTION     1.01     2.10    11.39     0  01:43        2.10
  HS02004876           JUNCTION     1.10     2.26    11.29     0  01:43        2.26
  HS02004881           JUNCTION     0.96     2.15    11.18     0  01:54        2.15
  HS02004901           JUNCTION     0.86     1.42    11.28     0  01:13        1.42
  WS02004401           JUNCTION     0.71     1.19     7.19     0  01:54        1.19
  WS02006109           JUNCTION     1.88     2.64     9.26     0  01:37        2.64
  WS02006110           JUNCTION     1.62     2.48     9.06     0  01:53        2.48
  WS02006111           JUNCTION     0.85     1.99     8.70     0  01:53        1.99
  WS02006112           JUNCTION     1.38     2.68     8.56     0  01:53        2.68
  WS02006113           JUNCTION     1.03     1.99     8.88     0  01:53        1.99
  WS02006115           JUNCTION     0.92     1.88     8.02     0  01:54        1.88
  WS02006116           JUNCTION     0.86     1.60     7.64     0  01:53        1.60
  WS02006228           JUNCTION     2.14     3.03     9.68     0  01:40        3.03
  WS02006229           JUNCTION     2.27     3.23     9.92     0  01:45        3.23
  WS02006230           JUNCTION     1.98     2.65     9.39     0  01:12        2.65
  WS02006231           JUNCTION     1.59     2.20     9.33     0  01:12        2.19
  WS02006232           JUNCTION     1.64     2.18     9.22     0  01:12        2.18
  WS02006234           JUNCTION     1.48     1.96     9.12     0  01:12        1.96
  WS02006235           JUNCTION     1.46     2.00     9.16     0  01:12        2.00
  WS02006238           JUNCTION     1.47     2.04     9.18     0  01:12        1.95
  WS02006239           JUNCTION     1.37     2.03     9.24     0  01:11        1.83
  WS02006240           JUNCTION     1.27     2.10     9.39     0  01:12        1.63
  WS02006242           JUNCTION     1.25     1.55     8.82     0  01:12        1.55
  WS02006243           JUNCTION     1.10     1.48     8.90     0  01:12        1.38
  WS02006245           JUNCTION     1.04     1.56     9.04     0  01:12        1.28
  WS02006247           JUNCTION     1.02     1.47     8.97     0  01:12        1.26
  WS02006248           JUNCTION     0.94     1.10     8.69     0  01:12        1.10
  WS02006249           JUNCTION     0.94     1.09     8.69     0  01:12        1.09
  WS02006251           JUNCTION     1.54     2.21     9.88     0  01:48        2.21
  WS02006252           JUNCTION     1.05     1.50     9.74     0  00:00        1.50
  WS02006253           JUNCTION     2.04     3.46    11.11     0  02:00        3.46
  WS02006256           JUNCTION     1.89     2.35     9.28     0  00:00        2.35
  WS02006280           JUNCTION     1.04     1.79    10.07     0  01:45        1.79
  WS02006284           JUNCTION     1.26     1.96    10.36     0  01:45        1.96
  WS02006287           JUNCTION     1.03     1.76    10.71     0  01:18        1.73
  YS02001580           JUNCTION     0.46     1.05     9.59     0  01:14        0.80
  YS02001583           JUNCTION     0.49     1.14     9.64     0  01:14        0.82
  YS02001586           JUNCTION     0.73     1.13     9.30     0  01:14        1.13
  YS02001590           JUNCTION     0.91     1.40     9.26     0  01:14        1.39
  YS02001593           JUNCTION     0.83     1.37     9.23     0  01:14        1.31
  YS02001596           JUNCTION     1.09     1.71     9.13     0  01:14        1.65
  YS02001600           JUNCTION     1.27     1.87     9.00     0  01:14        1.87
  YS02001601           JUNCTION     1.47     2.06     8.90     0  01:13        2.06
  YS02001602           JUNCTION     1.32     1.87     8.77     0  01:14        1.87
  YS02001605           JUNCTION     1.24     1.78     8.68     0  03:10        1.78
  YS02001607           JUNCTION     1.15     1.66     8.51     0  01:45        1.66
  YS02001610           JUNCTION     1.19     1.68     8.48     0  01:15        1.68
  YS02001613           JUNCTION     1.16     1.70     8.54     0  01:45        1.70
  YS02001616           JUNCTION     1.10     1.61     8.52     0  01:34        1.61
  YS02001619           JUNCTION     1.09     1.61     8.54     0  01:34        1.61
  YS02001622           JUNCTION     1.07     1.60     8.51     0  02:38        1.59
  YS02001625           JUNCTION     1.28     1.78     8.38     0  01:14        1.78
  YS02001629           JUNCTION     1.30     1.85     8.40     0  01:14        1.85
  YS02001633           JUNCTION     1.41     2.08     8.53     0  01:40        2.08
  YS02001641           JUNCTION     1.36     1.97     8.41     0  02:20        1.96
  YS02001644           JUNCTION     1.34     1.92     8.35     0  01:21        1.92
  YS02001647           JUNCTION     1.16     1.79     8.40     0  01:43        1.79
  YS02001649           JUNCTION     1.34     2.05     8.44     0  01:42        2.05
  YS02001652           JUNCTION     1.23     2.15     8.75     0  01:50        2.14
  YS02001655           JUNCTION     1.09     2.20     9.05     0  01:45        2.20
  YS02001658           JUNCTION     0.94     2.30     9.44     0  01:49        2.30
  YS02001661           JUNCTION     0.85     2.44     9.85     0  01:52        2.44
  YS02001664           JUNCTION     0.58     2.31    10.23     0  01:45        2.31
  YS02001745           JUNCTION     0.65     2.35     9.87     0  01:55        2.35
  YS02001748           JUNCTION     0.89     2.27     9.35     0  01:53        2.27
  YS02001751           JUNCTION     1.00     2.20     9.08     0  02:10        2.19
  YS02001754           JUNCTION     1.18     2.18     8.79     0  02:10        2.18
  YS02001757           JUNCTION     1.43     2.21     8.47     0  01:45        2.21
  YS02001759           JUNCTION     1.38     2.21     8.57     0  01:45        2.21
  YS02001762           JUNCTION     1.35     2.15     8.55     0  01:45        2.15
  YS02001765           JUNCTION     1.30     2.10     8.55     0  01:45        2.10
  YS02001767           JUNCTION     1.27     2.03     8.52     0  01:45        2.03
  YS02001770           JUNCTION     1.27     1.95     8.44     0  01:35        1.95
  YS02001774           JUNCTION     1.32     2.02     8.44     0  01:45        2.01
  YS02001779           JUNCTION     1.08     1.68     8.37     0  01:18        1.68
  YS02001783           JUNCTION     0.79     1.55     7.69     0  02:14        1.48
  YS02001784           JUNCTION     0.73     1.38     7.45     0  02:14        1.31
  YS02001786           JUNCTION     0.58     1.02     7.05     0  02:14        0.99
  YS02001788           JUNCTION     0.41     0.69     6.67     0  02:06        0.69
  YS02001790           JUNCTION     0.46     0.78     6.43     0  02:05        0.74
  YS02001791           JUNCTION     0.28     0.48     5.95     0  02:05        0.47
  YS02001793           JUNCTION     0.15     0.32     5.16     0  02:09        0.31
  YS02001882           JUNCTION     1.01     1.83     8.55     0  01:48        1.83
  YS02001884           JUNCTION     1.09     1.93     8.55     0  01:48        1.93
  YS02001887           JUNCTION     1.17     2.00     8.54     0  01:45        2.00
  YS02001890           JUNCTION     1.15     1.81     8.32     0  01:17        1.81
  YS02001895           JUNCTION     0.93     1.58     8.33     0  01:17        1.58
  YS02001898           JUNCTION     0.93     1.60     8.33     0  01:17        1.59
  YS02001901           JUNCTION     1.03     1.70     8.31     0  01:17        1.68
  YS02001904           JUNCTION     1.01     1.65     8.28     0  01:17        1.64
  YS02001907           JUNCTION     1.31     1.96     8.25     0  01:17        1.96
  YS02001910           JUNCTION     1.20     2.02     8.53     0  01:45        2.01
  YS02001915           JUNCTION     1.09     2.00     8.72     0  01:38        2.00
  YS02001918           JUNCTION     0.87     1.81     8.88     0  01:18        1.81
  YS02001920           JUNCTION     0.97     2.11     9.12     0  01:18        2.03
  YS02001923           JUNCTION     0.81     2.03     9.29     0  01:18        1.92
  YS02001926           JUNCTION     0.77     1.90     9.35     0  01:18        1.88
  YS02001929           JUNCTION     0.63     1.78     9.47     0  01:18        1.78
  YS02006553           JUNCTION     1.33     2.17     8.45     0  01:45        2.17
  YS02006556           JUNCTION     1.34     2.37     8.68     0  02:14        2.33
  YS02006558           JUNCTION     1.40     2.50     8.77     0  01:45        2.50
  YS02006561           JUNCTION     0.57     1.25     7.91     0  02:14        1.20
  YS02163301           JUNCTION     1.34     1.97     8.48     0  01:45        1.96
  YS02163601           JUNCTION     1.43     2.08     8.48     0  01:40        2.08
  YS02164001           JUNCTION     1.35     1.99     8.45     0  01:45        1.98
  YSB1154              JUNCTION     1.23     2.10    11.16     0  01:40        2.10
  YSB1171              JUNCTION     1.28     1.95    10.85     0  01:18        1.95
  YSB1174              JUNCTION     1.14     1.95    11.06     0  01:43        1.95
  YSB6556              JUNCTION     1.08     1.80    10.97     0  01:39        1.80
  CC-1                 OUTFALL      0.00     0.00     0.00     0  00:00        0.00
  CC-2                 OUTFALL      0.00     0.00     0.00     0  00:00        0.00
  JK-1                 OUTFALL      0.00     0.00     0.00     0  00:00        0.00
  JK-2                 OUTFALL      0.00     0.00     0.00     0  00:00        0.00
  WS02004402           OUTFALL      0.59     0.88     6.84     0  02:03        0.88
  CC-storage           STORAGE      1.66     2.30     7.80     0  02:18        2.30
  JK-storage           STORAGE      2.38     4.24     5.04     0  01:39        4.21
  
  
  *******************
  Node Inflow Summary
  *******************
  
  -------------------------------------------------------------------------------------------------
                                  Maximum  Maximum                  Lateral       Total        Flow
                                  Lateral    Total  Time of Max      Inflow      Inflow     Balance
                                   Inflow   Inflow   Occurrence      Volume      Volume       Error
  Node                 Type           LPS      LPS  days hr:min    10^6 ltr    10^6 ltr     Percent
  -------------------------------------------------------------------------------------------------
  HS02004478           JUNCTION      0.00  2327.36     0  02:44           0        17.5       0.001
  HS02004479           JUNCTION      0.00   421.13     0  01:18           0        1.68       0.095
  HS02004480           JUNCTION      0.00  2133.89     0  01:15           0          11       0.035
  HS02004770           JUNCTION  24331.36 25227.05     0  02:01        29.8        33.4       0.014
  HS02004777           JUNCTION      0.03   743.25     0  01:13    0.000432        2.68       0.307
  HS02004785           JUNCTION      0.15   756.50     0  01:13     0.00216        2.67       0.116
  HS02004788           JUNCTION   8795.28  8795.28     0  02:01        10.8        12.4       0.010
  HS02004792           JUNCTION  30783.62 31873.33     0  02:01        39.3          46       0.004
  HS02004799           JUNCTION   5198.64  6340.74     0  02:01        5.99        15.3       0.052
  HS02004802           JUNCTION      0.00  1239.90     0  02:44           0        7.68       0.070
  HS02004807           JUNCTION   6407.91  7604.45     0  02:01        7.32        14.2       0.048
  HS02004817           JUNCTION      0.60  1197.05     0  01:42     0.00864        6.97       0.279
  HS02004824           JUNCTION   9771.75 10643.97     0  02:02        13.1        16.7       0.007
  HS02004830           JUNCTION      0.15  1048.39     0  02:09     0.00216        3.84       0.065
  HS02004837           JUNCTION   5966.25  5966.25     0  02:01        7.03         7.5       0.025
  HS02004842           JUNCTION      0.00  2354.69     0  02:08           0        6.37       0.223
  HS02004848           JUNCTION   9590.21  9590.21     0  02:02          14        14.4       0.004
  HS02004852           JUNCTION      0.00  1001.78     0  01:17           0        4.97       0.022
  HS02004856           JUNCTION   2632.84  3513.58     0  02:01        3.03           8       0.031
  HS02004862           JUNCTION   4255.15  5402.88     0  02:01         5.8          12       0.016
  HS02004870           JUNCTION   3507.48  3507.48     0  02:01        4.02        8.79       0.010
  HS02004876           JUNCTION   3554.29  4480.27     0  02:01        4.18        11.8       0.033
  HS02004881           JUNCTION   1871.97  2862.52     0  02:01        2.12        11.4       0.010
  HS02004901           JUNCTION   5586.34  5586.34     0  02:01        6.55        6.55       0.033
  WS02004401           JUNCTION      0.00  2426.78     0  02:03           0        15.2       0.094
  WS02006109           JUNCTION      1.23  1338.05     0  02:58      0.0177        11.9       0.177
  WS02006110           JUNCTION      0.00  1337.88     0  02:58           0        11.2       0.204
  WS02006111           JUNCTION      0.00  1337.96     0  02:55           0        11.1       0.054
  WS02006112           JUNCTION   4562.83  5400.29     0  02:01        5.37        16.5       0.218
  WS02006113           JUNCTION      0.00  1337.86     0  03:00           0        11.1       0.132
  WS02006115           JUNCTION      0.00  2426.78     0  02:03           0        15.2       0.139
  WS02006116           JUNCTION      0.00  2426.78     0  02:03           0        15.2       0.062
  WS02006228           JUNCTION      0.00  1337.96     0  02:52           0        11.9       0.110
  WS02006229           JUNCTION      0.00  2328.11     0  02:44           0        18.7       0.078
  WS02006230           JUNCTION     10.28  1026.29     0  01:45       0.148        8.18       0.263
  WS02006231           JUNCTION      0.00   620.11     0  01:10           0        4.53       0.282
  WS02006232           JUNCTION      0.00   596.59     0  01:11           0        4.52       0.395
  WS02006234           JUNCTION      0.00   596.65     0  01:11           0         4.5       0.322
  WS02006235           JUNCTION      0.00   585.07     0  01:11           0        4.26       0.190
  WS02006238           JUNCTION      0.00   569.76     0  01:11           0        4.07       0.151
  WS02006239           JUNCTION      0.00   671.22     0  01:11           0        4.06       0.278
  WS02006240           JUNCTION      0.00   819.94     0  01:12           0        4.04       0.320
  WS02006242           JUNCTION      0.00   789.23     0  01:12           0        4.05       0.411
  WS02006243           JUNCTION      0.00   735.25     0  01:12           0        3.08       0.526
  WS02006245           JUNCTION      0.00   464.53     0  01:12           0        3.09       0.581
  WS02006247           JUNCTION      0.00   417.22     0  04:00           0         3.1       0.368
  WS02006248           JUNCTION      0.00   626.93     0  01:12           0        3.53       0.324
  WS02006249           JUNCTION      0.00  1411.09     0  02:07           0        11.2       0.172
  WS02006251           JUNCTION      0.08  1936.64     0  02:00     0.00111        13.1       0.137
  WS02006252           JUNCTION      0.00   820.21     0  01:51           0        5.78       0.001
  WS02006253           JUNCTION    460.70  1936.57     0  02:00        0.51        11.4       0.126
  WS02006256           JUNCTION      0.00   300.00     0  00:00           0        2.47      -0.050
  WS02006280           JUNCTION      0.00  2326.55     0  02:45           0        17.5      -0.007
  WS02006284           JUNCTION      0.10  2326.12     0  02:45     0.00138        17.5       0.018
  WS02006287           JUNCTION      0.00  2326.56     0  02:44           0        17.5       0.043
  YS02001580           JUNCTION      0.00   126.97     0  01:14           0     0.00437      -3.966
  YS02001583           JUNCTION      0.00   178.98     0  01:14           0      0.0155      -5.283
  YS02001586           JUNCTION  12110.60 12110.60     0  02:02          18          18       0.013
  YS02001590           JUNCTION      0.00   318.15     0  01:45           0        2.62       0.097
  YS02001593           JUNCTION      0.00   318.12     0  02:16           0        2.61       0.041
  YS02001596           JUNCTION      0.00   318.21     0  02:47           0        2.61       0.029
  YS02001600           JUNCTION      0.00   318.24     0  01:45           0        2.61       0.032
  YS02001601           JUNCTION  18874.09 19191.59     0  02:01        23.3        25.9       0.017
  YS02001602           JUNCTION      0.00   583.31     0  01:14           0        3.52       0.137
  YS02001605           JUNCTION      0.00   583.33     0  01:14           0        3.09       0.224
  YS02001607           JUNCTION      0.00   583.07     0  01:14           0        3.08       0.264
  YS02001610           JUNCTION      0.00   956.66     0  02:26           0         6.1       0.140
  YS02001613           JUNCTION      0.00   619.50     0  02:26           0        3.99       0.182
  YS02001616           JUNCTION      0.00   621.53     0  02:38           0        3.99       0.122
  YS02001619           JUNCTION  20853.26 20853.26     0  02:02        29.1          30       0.011
  YS02001622           JUNCTION      0.00  1053.97     0  01:40           0        7.98       0.059
  YS02001625           JUNCTION      0.00  1505.47     0  02:15           0        10.2       0.241
  YS02001629           JUNCTION      0.00  1138.96     0  02:18           0           6       0.010
  YS02001633           JUNCTION  14141.24 14141.24     0  02:01        17.3          19       0.064
  YS02001641           JUNCTION      0.00  1364.29     0  01:17           0        6.42       0.135
  YS02001644           JUNCTION  12507.42 14259.07     0  02:01        15.1        24.2       0.041
  YS02001647           JUNCTION      0.00  1772.29     0  01:17           0        6.42       0.061
  YS02001649           JUNCTION      0.00  3236.41     0  02:13           0        13.8       0.035
  YS02001652           JUNCTION      0.00  2429.25     0  01:52           0        8.76      -0.032
  YS02001655           JUNCTION      0.15  2731.44     0  02:07     0.00222        9.24       0.025
  YS02001658           JUNCTION      0.00  2783.81     0  02:14           0        9.31      -0.005
  YS02001661           JUNCTION      0.00  2783.76     0  01:52           0        9.31      -0.043
  YS02001664           JUNCTION  12036.17 12036.17     0  02:01        14.2        14.2      -0.002
  YS02001745           JUNCTION   7257.89  7257.89     0  02:01        8.27        8.27       0.018
  YS02001748           JUNCTION      0.04  3122.13     0  02:03    0.000648        6.93      -0.031
  YS02001751           JUNCTION      0.01  2353.32     0  02:02    0.000158        6.28       0.029
  YS02001754           JUNCTION      0.26  2353.58     0  02:03     0.00374        6.29      -0.034
  YS02001757           JUNCTION      0.00  3760.87     0  01:56           0        20.4       0.138
  YS02001759           JUNCTION  10115.34 10115.34     0  02:01        11.5        13.4       0.017
  YS02001762           JUNCTION      0.00   746.67     0  01:25           0        3.42       0.069
  YS02001765           JUNCTION      0.00   745.40     0  01:25           0        3.42       0.054
  YS02001767           JUNCTION      0.54   746.57     0  01:25      0.0077        3.42       0.075
  YS02001770           JUNCTION  14720.28 15442.46     0  02:01        17.2        18.9       0.008
  YS02001774           JUNCTION      0.00   852.12     0  02:17           0        3.78       0.097
  YS02001779           JUNCTION      0.01   851.76     0  02:17     7.2e-05        3.74      -0.011
  YS02001783           JUNCTION      0.00  1321.89     0  02:03           0        8.79       0.011
  YS02001784           JUNCTION      1.06  1322.77     0  02:10      0.0153         8.8       0.022
  YS02001786           JUNCTION      0.06  1322.92     0  02:10    0.000811         8.8       0.022
  YS02001788           JUNCTION      0.07  1322.98     0  02:10     0.00102         8.8       0.012
  YS02001790           JUNCTION      0.15  1345.32     0  02:10     0.00223         8.8       0.034
  YS02001791           JUNCTION      0.00  1409.99     0  02:09           0         8.8      -0.034
  YS02001793           JUNCTION      0.00  1450.56     0  02:06           0         8.8       0.007
  YS02001882           JUNCTION      0.00    70.89     0  01:15           0      0.0138       9.004
  YS02001884           JUNCTION      0.00   121.43     0  01:12           0      0.0496       8.855
  YS02001887           JUNCTION  10466.38 10466.38     0  02:01        11.7        11.8       0.050
  YS02001890           JUNCTION      0.00  2052.03     0  02:01           0        7.27       0.094
  YS02001895           JUNCTION      0.00   520.04     0  02:38           0         3.3       0.115
  YS02001898           JUNCTION      0.00   520.60     0  02:38           0         3.3       0.016
  YS02001901           JUNCTION      0.00   518.69     0  01:37           0        3.31       0.147
  YS02001904           JUNCTION      0.00   518.61     0  01:38           0        3.32       0.127
  YS02001907           JUNCTION      0.00  4670.03     0  01:52           0        18.5       0.111
  YS02001910           JUNCTION      0.00  1993.15     0  02:23           0        10.5       0.091
  YS02001915           JUNCTION  13526.34 14748.03     0  02:01        16.4        21.4       0.014
  YS02001918           JUNCTION      0.00  1681.66     0  02:15           0         5.8       0.009
  YS02001920           JUNCTION      2.87  1681.76     0  01:53      0.0413        5.78       0.019
  YS02001923           JUNCTION      0.04  1679.10     0  02:15    0.000543        5.72      -0.005
  YS02001926           JUNCTION      0.05  1678.73     0  02:14    0.000752        5.71       0.002
  YS02001929           JUNCTION   6797.24  6797.24     0  02:01        8.64        8.65      -0.007
  YS02006553           JUNCTION      0.00  2160.53     0  01:53           0        6.76       0.201
  YS02006556           JUNCTION      0.00  2160.57     0  01:54           0        6.78       0.140
  YS02006558           JUNCTION  14943.01 14943.01     0  02:01        17.3        19.4       0.020
  YS02006561           JUNCTION      0.00  1322.56     0  02:03           0        8.79       0.006
  YS02163301           JUNCTION      0.00  1138.87     0  02:15           0        6.01       0.133
  YS02163601           JUNCTION      0.11  1362.50     0  01:17     0.00158        6.42       0.216
  YS02164001           JUNCTION      0.00  1362.47     0  01:17           0        6.41       0.120
  YSB1154              JUNCTION   6078.52  6078.52     0  02:01        7.13        7.13       0.030
  YSB1171              JUNCTION      0.00  1629.79     0  02:14           0        7.35       0.117
  YSB1174              JUNCTION   4920.75  4920.75     0  02:01         5.5         5.5       0.036
  YSB6556              JUNCTION      0.00   725.69     0  01:56           0         3.4       0.078
  CC-1                 OUTFALL       0.00   683.00     0  00:00           0         6.7       0.000
  CC-2                 OUTFALL       0.00   683.00     0  00:00           0        6.52       0.000
  JK-1                 OUTFALL       0.00  1000.00     0  00:00           0        6.29       0.000
  JK-2                 OUTFALL       0.00  1000.00     0  00:00           0      0.0483       0.000
  WS02004402           OUTFALL       0.00  2426.78     0  02:03           0        15.2       0.000
  CC-storage           STORAGE       0.00  3173.41     0  01:23           0        20.8       0.005
  JK-storage           STORAGE       0.00  1523.91     0  02:06           0        8.95      -0.007
  
  
  **********************
  Node Surcharge Summary
  **********************
  
  Surcharging occurs when water rises above the top of the highest conduit.
  ---------------------------------------------------------------------
                                               Max. Height   Min. Depth
                                   Hours       Above Crown    Below Rim
  Node                 Type      Surcharged         Meters       Meters
  ---------------------------------------------------------------------
  HS02004478           JUNCTION        1.84          0.686        0.254
  HS02004479           JUNCTION        1.93          0.934        0.116
  HS02004480           JUNCTION        1.96          1.005        0.095
  HS02004770           JUNCTION        1.90          0.720        0.000
  HS02004777           JUNCTION        1.90          0.780        0.000
  HS02004785           JUNCTION        1.86          0.790        0.000
  HS02004788           JUNCTION        1.85          0.720        0.000
  HS02004792           JUNCTION        1.94          0.900        0.000
  HS02004799           JUNCTION        2.01          1.060        0.000
  HS02004802           JUNCTION        1.95          1.120        0.090
  HS02004807           JUNCTION        1.93          1.220        0.000
  HS02004817           JUNCTION        2.19          1.740        0.000
  HS02004824           JUNCTION        1.86          1.310        0.000
  HS02004830           JUNCTION        1.83          1.330        0.000
  HS02004837           JUNCTION        1.80          1.340        0.000
  HS02004842           JUNCTION        1.89          1.520        0.000
  HS02004848           JUNCTION        1.76          1.370        0.000
  HS02004852           JUNCTION        1.77          1.420        0.000
  HS02004856           JUNCTION        1.77          1.300        0.000
  HS02004862           JUNCTION        1.79          1.300        0.000
  HS02004870           JUNCTION        1.81          1.400        0.000
  HS02004876           JUNCTION        1.86          1.560        0.000
  HS02004881           JUNCTION        1.84          1.450        0.000
  HS02004901           JUNCTION        1.88          0.720        0.000
  WS02004401           JUNCTION        0.59          0.193        1.467
  WS02006109           JUNCTION        2.84          1.820        0.000
  WS02006110           JUNCTION        2.83          1.570        0.280
  WS02006111           JUNCTION        1.91          1.182        0.688
  WS02006112           JUNCTION        2.35          1.680        0.000
  WS02006113           JUNCTION        2.00          1.189        0.741
  WS02006115           JUNCTION        1.69          0.871        1.379
  WS02006116           JUNCTION        0.98          0.544        1.746
  WS02006228           JUNCTION        2.85          2.200        0.000
  WS02006229           JUNCTION        2.01          1.050        0.020
  WS02006230           JUNCTION        2.68          1.570        0.000
  WS02006231           JUNCTION        2.82          1.495        0.035
  WS02006232           JUNCTION        2.82          1.480        0.000
  WS02006234           JUNCTION        2.80          1.240        0.000
  WS02006235           JUNCTION        2.80          1.290        0.000
  WS02006238           JUNCTION        2.81          1.321        0.109
  WS02006239           JUNCTION        2.80          1.290        0.000
  WS02006240           JUNCTION        2.80          1.390        0.000
  WS02006242           JUNCTION        2.80          0.820        0.000
  WS02006243           JUNCTION        2.79          0.770        0.000
  WS02006245           JUNCTION        2.79          0.850        0.000
  WS02006247           JUNCTION        2.79          0.760        0.000
  WS02006248           JUNCTION        2.79          0.380        0.000
  WS02006249           JUNCTION        2.78          0.390        0.000
  WS02006251           JUNCTION        2.78          1.180        0.000
  WS02006252           JUNCTION        2.91          1.100        0.000
  WS02006253           JUNCTION        2.78          2.423        0.057
  WS02006256           JUNCTION        3.48          2.050        0.000
  WS02006280           JUNCTION        1.97          0.744        0.036
  WS02006284           JUNCTION        1.93          0.682        0.118
  WS02006287           JUNCTION        1.89          0.755        0.135
  YS02001580           JUNCTION        1.98          0.450        0.000
  YS02001583           JUNCTION        1.98          0.500        0.000
  YS02001586           JUNCTION        2.05          0.510        0.000
  YS02001590           JUNCTION        2.11          0.750        0.000
  YS02001593           JUNCTION        2.11          0.747        0.093
  YS02001596           JUNCTION        2.19          0.980        0.090
  YS02001600           JUNCTION        2.28          1.190        0.000
  YS02001601           JUNCTION        2.49          1.440        0.000
  YS02001602           JUNCTION        2.44          1.270        0.000
  YS02001605           JUNCTION        2.41          1.179        0.001
  YS02001607           JUNCTION        2.13          0.660        0.020
  YS02001610           JUNCTION        2.15          0.680        0.000
  YS02001613           JUNCTION        2.13          0.700        0.000
  YS02001616           JUNCTION        2.09          0.610        0.000
  YS02001619           JUNCTION        2.09          0.610        0.000
  YS02001622           JUNCTION        2.09          0.604        0.016
  YS02001625           JUNCTION        2.24          0.780        0.000
  YS02001629           JUNCTION        2.06          0.470        0.000
  YS02001633           JUNCTION        2.29          1.060        0.000
  YS02001641           JUNCTION        2.29          0.969        0.131
  YS02001644           JUNCTION        2.28          0.920        0.000
  YS02001647           JUNCTION        2.11          0.794        0.106
  YS02001649           JUNCTION        2.25          1.050        0.000
  YS02001652           JUNCTION        2.07          1.122        0.008
  YS02001655           JUNCTION        1.93          1.200        0.000
  YS02001658           JUNCTION        1.70          1.300        0.000
  YS02001661           JUNCTION        1.09          1.372        0.018
  YS02001664           JUNCTION        0.72          1.310        0.000
  YS02001745           JUNCTION        0.75          1.350        0.000
  YS02001748           JUNCTION        1.62          1.190        0.000
  YS02001751           JUNCTION        1.86          1.198        0.002
  YS02001754           JUNCTION        2.02          1.134        0.016
  YS02001757           JUNCTION        2.32          1.210        0.000
  YS02001759           JUNCTION        2.24          1.210        0.000
  YS02001762           JUNCTION        2.21          1.150        0.000
  YS02001765           JUNCTION        2.18          1.100        0.000
  YS02001767           JUNCTION        2.15          1.030        0.000
  YS02001770           JUNCTION        2.12          0.920        0.000
  YS02001774           JUNCTION        2.20          1.017        0.033
  YS02001779           JUNCTION        2.01          0.680        0.000
  YS02001783           JUNCTION        1.86          0.750        0.850
  YS02001784           JUNCTION        1.85          0.578        0.912
  YS02001786           JUNCTION        1.77          0.225        1.205
  YS02001882           JUNCTION        1.83          0.830        0.000
  YS02001884           JUNCTION        1.83          0.870        0.000
  YS02001887           JUNCTION        1.86          0.950        0.000
  YS02001890           JUNCTION        1.87          0.760        0.000
  YS02001895           JUNCTION        1.82          0.580        0.170
  YS02001898           JUNCTION        1.81          0.567        0.173
  YS02001901           JUNCTION        1.85          0.703        0.167
  YS02001904           JUNCTION        1.84          0.654        0.196
  YS02001907           JUNCTION        1.98          0.950        0.000
  YS02001910           JUNCTION        1.88          1.019        0.081
  YS02001915           JUNCTION        1.82          1.000        0.000
  YS02001918           JUNCTION        1.76          0.810        0.000
  YS02001920           JUNCTION        1.77          1.113        0.027
  YS02001923           JUNCTION        1.21          0.820        0.000
  YS02001926           JUNCTION        1.27          0.900        0.000
  YS02001929           JUNCTION        0.96          0.780        0.000
  YS02006553           JUNCTION        1.99          1.167        0.023
  YS02006556           JUNCTION        1.93          1.331        0.019
  YS02006558           JUNCTION        1.92          1.400        0.000
  YS02006561           JUNCTION        1.73          0.453        0.697
  YS02163301           JUNCTION        2.27          0.967        0.063
  YS02163601           JUNCTION        2.34          1.080        0.000
  YS02164001           JUNCTION        2.28          0.988        0.112
  YSB1154              JUNCTION        2.05          1.400        0.000
  YSB1171              JUNCTION        2.05          1.100        0.000
  YSB1174              JUNCTION        2.02          1.250        0.000
  YSB6556              JUNCTION        2.00          1.100        0.000
  
  
  *********************
  Node Flooding Summary
  *********************
  
  Flooding refers to all water that overflows a node, whether it ponds or not.
  --------------------------------------------------------------------------
                                                             Total   Maximum
                                 Maximum   Time of Max       Flood    Ponded
                        Hours       Rate    Occurrence      Volume     Depth
  Node                 Flooded       LPS   days hr:min    10^6 ltr    Meters
  --------------------------------------------------------------------------
  HS02004770              1.82  25220.32      0  02:01      31.727     0.000
  HS02004777              0.01     45.90      0  01:13       0.000     0.000
  HS02004785              0.01    110.22      0  01:13       0.000     0.000
  HS02004788              0.56   7277.34      0  02:01       4.684     0.000
  HS02004792              1.77  30722.13      0  02:01      36.699     0.000
  HS02004799              1.49   5034.09      0  02:01       4.786     0.000
  HS02004807              1.28   6370.83      0  02:01       6.476     0.000
  HS02004817              0.01      0.24      0  02:38       0.000     0.000
  HS02004824              1.16   9448.01      0  02:02       9.617     0.000
  HS02004830              0.32    176.16      0  02:03       0.179     0.000
  HS02004837              0.26   3831.60      0  02:01       1.509     0.000
  HS02004842              1.15   2354.69      0  02:08       5.585     0.000
  HS02004848              0.54   7439.54      0  02:02       5.382     0.000
  HS02004852              0.01    211.38      0  01:17       0.000     0.000
  HS02004856              0.68   2509.98      0  02:01       1.957     0.000
  HS02004862              1.09   5401.86      0  02:01       7.215     0.000
  HS02004870              0.36   2436.00      0  02:01       1.076     0.000
  HS02004876              0.56   3488.72      0  02:01       2.492     0.000
  HS02004881              0.22   1387.00      0  02:01       0.476     0.000
  HS02004901              0.94   5115.16      0  02:01       4.006     0.000
  WS02006109              0.83    449.90      0  02:10       0.717     0.000
  WS02006112              0.27   2972.40      0  02:01       1.211     0.000
  WS02006228              0.01      1.89      0  01:40       0.000     0.000
  WS02006230              1.92    573.60      0  01:45       3.563     0.000
  WS02006232              0.35      3.25      0  01:12       0.000     0.000
  WS02006234              1.97    128.78      0  03:00       0.880     0.000
  WS02006235              0.01     45.19      0  01:12       0.000     0.000
  WS02006239              0.01    406.32      0  01:11       0.001     0.000
  WS02006240              0.01    755.31      0  01:12       0.001     0.000
  WS02006242              2.01    737.55      0  01:12       0.981     0.000
  WS02006243              0.01    694.56      0  01:12       0.004     0.000
  WS02006245              0.01    433.77      0  01:12       0.002     0.000
  WS02006247              0.01    345.97      0  01:12       0.001     0.000
  WS02006248              2.08    609.89      0  01:12       2.438     0.000
  WS02006249              2.78   1350.24      0  01:49       9.690     0.000
  WS02006251              0.43    105.07      0  02:00       0.095     0.000
  WS02006252              1.80    820.21      0  01:55       4.128     0.000
  WS02006256              2.29    293.19      0  00:00       1.634     0.000
  YS02001580              0.01     83.90      0  01:14       0.000     0.000
  YS02001583              0.01     57.25      0  01:14       0.000     0.000
  YS02001586              1.88  11792.70      0  02:02      15.347     0.000
  YS02001590              0.01     12.56      0  01:14       0.000     0.000
  YS02001600              0.01      2.26      0  01:14       0.000     0.000
  YS02001601              1.98  18787.64      0  02:01      22.391     0.000
  YS02001602              1.95     62.04      0  02:58       0.424     0.000
  YS02001610              1.88    955.68      0  02:26       5.140     0.000
  YS02001613              0.01      0.97      0  01:45       0.000     0.000
  YS02001616              0.22      3.32      0  02:38       0.001     0.000
  YS02001619              1.11  19183.60      0  02:02      18.978     0.000
  YS02001625              1.88   1505.26      0  02:18       8.450     0.000
  YS02001629              1.14    686.80      0  02:18       2.005     0.000
  YS02001633              0.64  12093.66      0  02:01       8.356     0.000
  YS02001644              1.65  14255.23      0  02:01      20.443     0.000
  YS02001649              0.71   2389.70      0  02:13       4.552     0.000
  YS02001655              0.47    303.26      0  02:14       0.477     0.000
  YS02001658              0.42     52.20      0  02:14       0.077     0.000
  YS02001664              0.41   9249.99      0  02:01       4.900     0.000
  YS02001745              0.20   4134.18      0  02:01       1.336     0.000
  YS02001748              0.28    768.81      0  02:02       0.650     0.000
  YS02001757              0.38    650.22      0  02:09       0.562     0.000
  YS02001759              0.43   7984.17      0  02:01       4.188     0.000
  YS02001762              0.04      1.52      0  02:14       0.000     0.000
  YS02001765              0.01      0.32      0  01:45       0.000     0.000
  YS02001767              0.01      0.25      0  01:45       0.000     0.000
  YS02001770              0.96  14587.27      0  02:01      13.261     0.000
  YS02001779              1.59    851.48      0  02:17       3.720     0.000
  YS02001882              0.01      0.57      0  01:48       0.000     0.000
  YS02001884              0.01      0.79      0  02:14       0.000     0.000
  YS02001887              0.45   8412.56      0  02:01       4.440     0.000
  YS02001890              1.33   1536.69      0  01:53       3.961     0.000
  YS02001907              1.73   4669.40      0  01:52      16.382     0.000
  YS02001915              0.86  12751.30      0  02:01      10.913     0.000
  YS02001918              0.56    459.74      0  02:15       0.787     0.000
  YS02001923              0.01    381.23      0  01:18       0.000     0.000
  YS02001926              0.01     38.48      0  01:18       0.000     0.000
  YS02001929              0.42   5116.98      0  02:01       2.951     0.000
  YS02006558              0.40  11458.41      0  02:01       5.857     0.000
  YS02163601              0.01      1.02      0  01:40       0.000     0.000
  YSB1154                 0.70   5351.16      0  02:01       3.731     0.000
  YSB1171                 1.70   1629.20      0  01:50       6.805     0.000
  YSB1174                 0.55   4169.24      0  02:01       2.464     0.000
  YSB6556                 0.78     85.86      0  02:00       0.227     0.000
  CC-storage              0.72    350.62      0  02:18       0.478     0.000
  
  
  **********************
  Storage Volume Summary
  **********************
  
  ------------------------------------------------------------------------------------------------
                         Average    Avg   Evap  Exfil     Maximum    Max    Time of Max    Maximum
                          Volume   Pcnt   Pcnt   Pcnt      Volume   Pcnt     Occurrence    Outflow
  Storage Unit           1000 m³   Full   Loss   Loss     1000 m³   Full    days hr:min        LPS
  ------------------------------------------------------------------------------------------------
  CC-storage               4.619   72.1    0.0    0.0       6.410  100.0       0  02:18    1783.54
  JK-storage               0.120   41.0    0.0    0.0       0.213   73.2       0  01:39    2300.00
  
  
  ***********************
  Outfall Loading Summary
  ***********************
  
  -----------------------------------------------------------
                         Flow       Avg       Max       Total
                         Freq      Flow      Flow      Volume
  Outfall Node           Pcnt       LPS       LPS    10^6 ltr
  -----------------------------------------------------------
  CC-1                  79.08    683.00    683.00       6.705
  CC-2                  76.91    683.00    683.00       6.516
  JK-1                  51.41   1000.00   1000.00       6.286
  JK-2                   0.31   1000.00   1000.00       0.048
  WS02004402            95.11   1303.91   2426.78      15.198
  -----------------------------------------------------------
  System                60.57   4669.91   4792.78      34.753
  
  
  ********************
  Link Flow Summary
  ********************
  
  -----------------------------------------------------------------------------
                                 Maximum  Time of Max   Maximum    Max/    Max/
                                  |Flow|   Occurrence   |Veloc|    Full    Full
  Link                 Type          LPS  days hr:min     m/sec    Flow   Depth
  -----------------------------------------------------------------------------
  HS02004478WS02006287 CONDUIT   2326.56     0  02:44      2.92    0.65    1.00
  HS02004479HS02004480 CONDUIT    421.76     0  01:18      0.64    0.41    1.00
  HS02004480HS02004478 CONDUIT   2133.18     0  01:15      3.05    8.98    1.00
  HS02004770HS02004777 CONDUIT    743.22     0  01:13      1.06    1.36    1.00
  HS02004777HS02004785 CONDUIT    756.35     0  01:13      1.16    0.93    1.00
  HS02004785HS02004788 CONDUIT    648.10     0  01:13      1.37    4.89    1.00
  HS02004788HS02004792 CONDUIT   1089.71     0  02:06      1.56    0.72    1.00
  HS02004792HS02004799 CONDUIT   1613.09     0  01:14      2.30    0.99    1.00
  HS02004799HS02004480 CONDUIT   1777.24     0  01:14      2.54    2.25    1.00
  HS02004802HS02004478 CONDUIT   1240.38     0  02:44      1.77    1.09    1.00
  HS02004807HS02004802 CONDUIT   1239.90     0  02:44      1.77    2.37    1.00
  HS02004817HS02004807 CONDUIT   1197.04     0  02:31      1.71    0.71    1.00
  HS02004817HS02004824 CONDUIT   1196.45     0  01:42      1.71    0.54    1.00
  HS02004824HS02004830 CONDUIT    872.23     0  02:08      1.25    1.14    1.00
  HS02004830HS02004837 CONDUIT   1048.24     0  02:09      1.50    1.04    1.00
  HS02004837HS02004842 CONDUIT   1084.84     0  02:08      1.55    0.65    1.00
  HS02004842HS02004848 CONDUIT   1269.84     0  02:01      1.81    0.74    1.00
  HS02004848HS02004852 CONDUIT   1001.78     0  01:17      1.57    1.13    1.00
  HS02004852HS02004856 CONDUIT    970.50     0  01:17      1.43    1.11    1.00
  HS02004856HS02004862 CONDUIT   1054.55     0  01:17      1.69    1.05    1.00
  HS02004862HS02004870 CONDUIT   1123.99     0  01:17      1.91    1.21    1.00
  HS02004870HS02004876 CONDUIT   1300.37     0  02:41      2.04    0.86    1.00
  HS02004876HS02004881 CONDUIT   1520.29     0  02:37      2.54   16.17    1.00
  HS02004881HS02006253 CONDUIT   1743.49     0  02:18      2.89    0.34    1.00
  HS02004901HS02004770 CONDUIT    469.86     0  02:10      0.67    1.00    1.00
  WS02004401WS02004402 CONDUIT   2426.78     0  02:03      3.17    2.91    0.94
  WS02006109WS02006110 CONDUIT   1337.88     0  02:58      2.66    2.57    1.00
  WS02006110WS02006113 CONDUIT   1337.86     0  03:00      2.66    1.22    1.00
  WS02006111WS02006112 CONDUIT   1338.51     0  02:58      2.66    0.64    1.00
  WS02006112WS02006115 CONDUIT   2426.78     0  02:03      3.09    1.43    1.00
  WS02006113WS02006111 CONDUIT   1337.96     0  02:55      2.80    1.60    1.00
  WS02006115WS02006116 CONDUIT   2426.78     0  02:03      3.09    3.11    1.00
  WS02006116WS02004401 CONDUIT   2426.78     0  02:03      3.09    3.34    1.00
  WS02006228WS02006109 CONDUIT   1336.82     0  02:58      2.66    5.84    1.00
  WS02006229WS02006228 CONDUIT   1337.96     0  02:52      2.66    4.43    1.00
  WS02006230WS02006229 CONDUIT   1016.01     0  01:45      2.64   22.61    1.00
  WS02006231WS02006230 CONDUIT    620.11     0  01:10      1.61    9.41    1.00
  WS02006232WS02006231 CONDUIT    596.59     0  01:11      1.55    1.25    1.00
  WS02006234WS02006232 CONDUIT    596.65     0  01:11      1.72    1.21    1.00
  WS02006235WS02006234 CONDUIT    585.07     0  01:11      1.56    6.17    1.00
  WS02006238WS02006235 CONDUIT    569.76     0  01:11      1.70    1.27    1.00
  WS02006239WS02006238 CONDUIT    618.78     0  01:11      1.77    1.98    1.00
  WS02006240WS02006239 CONDUIT    617.05     0  01:12      1.72    1.94    1.00
  WS02006242WS02006240 CONDUIT    500.82     0  01:12      1.30    1.99    1.00
  WS02006243WS02006242 CONDUIT    454.13     0  01:12      1.34    0.97    1.00
  WS02006245WS02006243 CONDUIT    417.22     0  04:00      1.39    1.23    1.00
  WS02006247WS02006245 CONDUIT    417.22     0  04:00      1.37    3.31    1.00
  WS02006248WS02006247 CONDUIT    417.22     0  04:00      1.38    0.91    1.00
  WS02006249WS02006248 CONDUIT    454.30     0  01:12      1.38    2.49    1.00
  WS02006251WS02006249 CONDUIT   1411.09     0  02:07      3.67    4.07    1.00
  WS02006252WS02006251 CONDUIT    420.21     0  01:58     24.89    1.54    1.00
  WS02006253WS02006251 CONDUIT   1936.56     0  02:00      5.03    5.81    1.00
  WS02006256WS02006235 CONDUIT    288.93     0  00:00      4.23    3.06    1.00
  WS02006280WS02006229 CONDUIT   2328.11     0  02:44      5.24    0.50    1.00
  WS02006284WS02006280 CONDUIT   2326.55     0  02:45      3.31    0.97    1.00
  WS02006287WS02006284 CONDUIT   2326.03     0  02:45      3.09    1.08    1.00
  YS02001580YS02001583 CONDUIT    126.97     0  01:14      0.73    0.49    1.00
  YS02001583YS02001586 CONDUIT    154.84     0  01:14      0.70    0.23    1.00
  YS02001586YS02001590 CONDUIT    318.15     0  01:45      1.28    0.56    1.00
  YS02001590YS02001593 CONDUIT    318.12     0  02:16      1.13    2.00    1.00
  YS02001593YS02001596 CONDUIT    318.21     0  02:47      1.73    0.50    1.00
  YS02001596YS02001600 CONDUIT    318.24     0  01:45      1.29    0.62    1.00
  YS02001600YS02001601 CONDUIT    318.31     0  01:45      1.13    0.55    1.00
  YS02001601YS02001602 CONDUIT    583.31     0  01:14      2.06    2.11    1.00
  YS02001602YS02001605 CONDUIT    583.33     0  01:14      2.06   12.34    1.00
  YS02001605YS02001607 CONDUIT    583.07     0  01:14      2.06    3.20    1.00
  YS02001607YS02001610 CONDUIT    562.90     0  01:14      0.78    0.54    1.00
  YS02001610YS02001613 CONDUIT    619.77     0  02:29      0.79    0.71    1.00
  YS02001613YS02001616 CONDUIT    619.50     0  02:26      0.79    0.53    1.00
  YS02001616YS02001619 CONDUIT    621.53     0  02:38      0.83    1.08    1.00
  YS02001619YS02001622 CONDUIT   1053.97     0  01:40      1.74    1.55    1.00
  YS02001622YS02001625 CONDUIT   1053.71     0  01:41      1.34    0.56    1.00
  YS02001625YS02001629 CONDUIT    953.00     0  01:14      1.22    0.45    1.00
  YS02001629YS02163301 CONDUIT   1138.96     0  02:18      1.45    1.40    1.00
  YS02001633YS02163601 CONDUIT   1362.39     0  01:17      1.73    1.43    1.00
  YS02001641YS02001644 CONDUIT   1362.51     0  01:17      1.73    4.40    1.00
  YS02001644YS02001647 CONDUIT   1772.29     0  01:17      2.29    1.04    1.00
  YS02001647YS02001649 CONDUIT   1775.76     0  01:17      2.35    0.94    1.00
  YS02001649YS02001757 CONDUIT   2039.97     0  01:16      2.63    1.24    1.00
  YS02001652YS02001649 CONDUIT   2429.32     0  02:14      3.09    1.20    1.00
  YS02001655YS02001652 CONDUIT   2429.25     0  01:52      3.09    1.18    1.00
  YS02001658YS02001655 CONDUIT   2731.29     0  02:07      3.48    1.16    1.00
  YS02001661YS02001658 CONDUIT   2783.81     0  02:14      3.54    1.09    1.00
  YS02001664YS02001661 CONDUIT   2783.76     0  01:52      3.54    0.87    1.00
  YS02001745YS02001748 CONDUIT   3122.08     0  02:03      3.98    1.20    1.00
  YS02001748YS02001751 CONDUIT   2353.31     0  02:02      3.00    1.19    1.00
  YS02001751YS02001754 CONDUIT   2353.32     0  02:03      3.00    1.13    1.00
  YS02001754YS02001757 CONDUIT   2353.58     0  02:02      3.00    0.95    1.00
  YS02001757CaochengTiaoxuchi CONDUIT   3173.41     0  01:23      4.04    1.37    1.00
  YS02001759YS02001757 CONDUIT   1488.81     0  01:49      1.90    1.06    1.00
  YS02001762YS02001759 CONDUIT    747.48     0  01:25      0.95    0.86    1.00
  YS02001765YS02001762 CONDUIT    746.67     0  01:25      0.95    0.70    1.00
  YS02001767YS02001765 CONDUIT    745.40     0  01:25      0.95    0.94    1.00
  YS02001770YS02001767 CONDUIT    746.04     0  01:25      0.95    2.96    1.00
  YS02001774YS02001770 CONDUIT    852.12     0  02:17      1.08    0.54    1.00
  YS02001779YS02001774 CONDUIT    851.75     0  02:17      1.08    0.43    1.00
  YS02001783YS02001784 CONDUIT   1321.71     0  02:10      2.63    1.82    1.00
  YS02001784YS02001785 CONDUIT   1322.86     0  02:10      2.63    3.08    1.00
  YS02001786YS02001788 CONDUIT   1322.91     0  02:10      2.74    2.55    0.93
  YS02001788YS02001790 CONDUIT   1345.17     0  02:10      2.93    0.99    0.91
  YS02001790YS02001791 CONDUIT   1409.99     0  02:09      3.56    1.53    0.76
  YS02001791YS02001793 CONDUIT   1450.56     0  02:06      6.85    0.62    0.48
  YS02001793JiankangQianchi CONDUIT   1523.91     0  02:06      2.91    0.12    0.66
  YS02001882YS02001884 CONDUIT     70.89     0  01:15      0.38    0.08    1.00
  YS02001884YS02001887 CONDUIT    121.43     0  01:12      0.32    0.16    1.00
  YS02001887YS02001890 CONDUIT   2052.03     0  02:01      2.61    3.51    1.00
  YS02001890YS02001895 CONDUIT    520.04     0  02:38      0.66    0.24    1.00
  YS02001895YS02001898 CONDUIT    520.60     0  02:38      0.67    0.90    1.00
  YS02001898YS02001901 CONDUIT    518.69     0  01:37      0.66    0.33    1.00
  YS02001901YS02001904 CONDUIT    518.61     0  01:38      0.66    0.80    1.00
  YS02001904YS02001907 CONDUIT    519.67     0  02:38      0.66    0.18    1.00
  YS02001907YS02006553 CONDUIT   2160.59     0  01:52      2.40    2.54    1.00
  YS02001910YS02001907 CONDUIT   1993.04     0  01:43      2.54    1.12    1.00
  YS02001915YS02001910 CONDUIT   1993.15     0  02:23      2.54    0.99    1.00
  YS02001918YS02001915 CONDUIT   1221.69     0  02:07      1.56    0.67    1.00
  YS02001920YS02001918 CONDUIT   1681.66     0  02:15      2.14    1.63    1.00
  YS02001923YS02001920 CONDUIT   1678.89     0  01:53      2.14    0.75    1.00
  YS02001926YS02001923 CONDUIT   1679.06     0  02:15      2.14    2.40    1.00
  YS02001929YS02001926 CONDUIT   1678.68     0  02:14      2.14    0.80    1.00
  YS02006553YS02006556 CONDUIT   2160.53     0  01:53      2.75    1.85    1.00
  YS02006556YS02006558 CONDUIT   2160.57     0  01:54      2.75    1.71    1.00
  YS02006558YS02006561 CONDUIT   1322.56     0  02:03      4.68    2.92    1.00
  YS02006561YS02001783 CONDUIT   1321.89     0  02:03      2.63    0.68    1.00
  YS02163301YS02001633 CONDUIT   1138.87     0  02:15      1.45    1.07    1.00
  YS02163601YS02164001 CONDUIT   1362.47     0  01:17      1.73    1.21    1.00
  YS02164001YS02001641 CONDUIT   1364.29     0  01:17      1.74    1.86    1.00
  YSB1154YSB6556       CONDUIT    725.69     0  01:56      1.89    1.30    1.00
  YSB1171HS02004479    CONDUIT    421.13     0  01:18      0.84    0.28    1.00
  YSB1174YSB1171       CONDUIT    750.69     0  02:14      1.95    1.15    1.00
  YSB6556YSB1171       CONDUIT    639.84     0  01:53      1.66    0.66    1.00
  CC-R1                PUMP       683.00     0  00:00              1.00
  CC-R2                PUMP       683.00     0  00:00              1.00
  CC-S1                PUMP       200.00     0  00:00              1.00
  CC-S2                PUMP       200.00     0  00:00              1.00
  JK-R1                PUMP      1000.00     0  00:00              1.00
  JK-R2                PUMP      1000.00     0  00:00              1.00
  JK-S                 PUMP       300.00     0  00:00              1.00
  
  
  ***************************
  Flow Classification Summary
  ***************************
  
  -------------------------------------------------------------------------------------
                      Adjusted    ---------- Fraction of Time in Flow Class ---------- 
                       /Actual         Up    Down  Sub   Sup   Up    Down  Norm  Inlet 
  Conduit               Length    Dry  Dry   Dry   Crit  Crit  Crit  Crit  Ltd   Ctrl  
  -------------------------------------------------------------------------------------
  HS02004478WS02006287    1.00   0.27  0.00  0.00  0.53  0.20  0.00  0.00  0.07  0.00
  HS02004479HS02004480    1.00   0.07  0.00  0.00  0.93  0.00  0.00  0.00  0.18  0.00
  HS02004480HS02004478    1.00   0.25  0.00  0.00  0.49  0.00  0.00  0.25  0.00  0.00
  HS02004770HS02004777    1.00   0.00  0.25  0.00  0.75  0.00  0.00  0.00  0.01  0.00
  HS02004777HS02004785    1.00   0.00  0.00  0.00  1.00  0.00  0.00  0.00  0.18  0.00
  HS02004785HS02004788    1.00   0.00  0.00  0.00  1.00  0.00  0.00  0.00  0.00  0.00
  HS02004788HS02004792    1.00   0.00  0.00  0.00  0.98  0.02  0.00  0.00  0.47  0.00
  HS02004792HS02004799    1.00   0.00  0.00  0.00  0.98  0.02  0.00  0.00  0.45  0.00
  HS02004799HS02004480    1.00   0.01  0.07  0.00  0.73  0.00  0.20  0.00  0.00  0.00
  HS02004802HS02004478    1.00   0.25  0.01  0.00  0.74  0.00  0.00  0.00  0.01  0.00
  HS02004807HS02004802    1.00   0.25  0.00  0.00  0.73  0.00  0.00  0.02  0.00  0.00
  HS02004817HS02004807    1.00   0.00  0.25  0.00  0.75  0.00  0.00  0.00  0.02  0.00
  HS02004817HS02004824    1.00   0.00  0.00  0.00  1.00  0.00  0.00  0.00  0.43  0.00
  HS02004824HS02004830    1.00   0.00  0.00  0.00  1.00  0.00  0.00  0.00  0.00  0.00
  HS02004830HS02004837    1.00   0.00  0.00  0.00  1.00  0.00  0.00  0.00  0.44  0.00
  HS02004837HS02004842    1.00   0.00  0.00  0.00  0.99  0.01  0.00  0.00  0.21  0.00
  HS02004842HS02004848    1.00   0.00  0.25  0.00  0.75  0.00  0.00  0.00  0.01  0.00
  HS02004848HS02004852    1.00   0.25  0.00  0.00  0.75  0.00  0.00  0.00  0.20  0.00
  HS02004852HS02004856    1.00   0.25  0.01  0.00  0.74  0.00  0.00  0.00  0.17  0.00
  HS02004856HS02004862    1.00   0.00  0.27  0.00  0.73  0.00  0.00  0.00  0.22  0.00
  HS02004862HS02004870    1.00   0.00  0.00  0.00  1.00  0.00  0.00  0.00  0.02  0.00
  HS02004870HS02004876    1.00   0.01  0.00  0.00  0.97  0.02  0.00  0.00  0.40  0.00
  HS02004876HS02004881    1.00   0.04  0.00  0.00  0.80  0.16  0.00  0.00  0.00  0.00
  HS02004881HS02006253    1.00   0.07  0.04  0.00  0.70  0.02  0.00  0.18  0.23  0.00
  HS02004901HS02004770    1.00   0.25  0.00  0.00  0.75  0.00  0.00  0.00  0.01  0.00
  WS02004401WS02004402    1.00   0.05  0.00  0.00  0.95  0.00  0.00  0.00  0.00  0.00
  WS02006109WS02006110    1.00   0.00  0.02  0.00  0.96  0.00  0.02  0.00  0.00  0.00
  WS02006110WS02006113    1.00   0.02  0.02  0.00  0.96  0.00  0.00  0.00  0.00  0.00
  WS02006111WS02006112    1.00   0.04  0.00  0.00  0.95  0.00  0.00  0.00  0.36  0.00
  WS02006112WS02006115    1.00   0.04  0.01  0.00  0.95  0.00  0.01  0.00  0.00  0.00
  WS02006113WS02006111    1.00   0.04  0.00  0.00  0.51  0.46  0.00  0.00  0.07  0.00
  WS02006115WS02006116    1.00   0.05  0.00  0.00  0.77  0.00  0.00  0.18  0.00  0.00
  WS02006116WS02004401    1.00   0.05  0.00  0.00  0.95  0.00  0.00  0.00  0.00  0.00
  WS02006228WS02006109    1.00   0.00  0.00  0.00  1.00  0.00  0.00  0.00  0.01  0.00
  WS02006229WS02006228    1.00   0.00  0.00  0.00  0.98  0.00  0.00  0.02  0.00  0.00
  WS02006230WS02006229    1.00   0.00  0.00  0.00  0.97  0.00  0.00  0.03  0.00  0.00
  WS02006231WS02006230    1.00   0.00  0.00  0.00  0.72  0.00  0.28  0.00  0.00  0.00
  WS02006232WS02006231    1.00   0.00  0.00  0.00  0.99  0.00  0.01  0.00  0.00  0.00
  WS02006234WS02006232    1.00   0.00  0.00  0.00  1.00  0.00  0.00  0.00  0.03  0.00
  WS02006235WS02006234    1.00   0.00  0.00  0.00  0.92  0.00  0.07  0.00  0.00  0.00
  WS02006238WS02006235    1.00   0.00  0.00  0.00  1.00  0.00  0.00  0.00  0.00  0.00
  WS02006239WS02006238    1.00   0.00  0.00  0.00  1.00  0.00  0.00  0.00  0.14  0.00
  WS02006240WS02006239    1.00   0.00  0.00  0.00  0.82  0.00  0.00  0.17  0.01  0.00
  WS02006242WS02006240    1.00   0.01  0.00  0.00  0.98  0.00  0.01  0.00  0.00  0.00
  WS02006243WS02006242    1.00   0.01  0.00  0.00  0.98  0.00  0.00  0.02  0.21  0.00
  WS02006245WS02006243    1.00   0.00  0.00  0.00  0.90  0.00  0.00  0.10  0.00  0.00
  WS02006247WS02006245    1.00   0.00  0.00  0.00  0.98  0.00  0.00  0.02  0.00  0.00
  WS02006248WS02006247    1.00   0.00  0.00  0.00  0.98  0.00  0.00  0.02  0.15  0.00
  WS02006249WS02006248    1.00   0.00  0.00  0.00  0.78  0.00  0.22  0.00  0.00  0.00
  WS02006251WS02006249    1.00   0.00  0.00  0.00  1.00  0.00  0.00  0.00  0.21  0.00
  WS02006252WS02006251    1.00   0.00  0.27  0.00  0.70  0.00  0.03  0.00  0.00  0.00
  WS02006253WS02006251    1.00   0.00  0.00  0.00  0.92  0.00  0.08  0.00  0.00  0.00
  WS02006256WS02006235    1.00   0.00  0.00  0.00  1.00  0.00  0.00  0.00  0.00  0.00
  WS02006280WS02006229    1.00   0.27  0.00  0.00  0.51  0.08  0.00  0.14  0.03  0.00
  WS02006284WS02006280    1.00   0.27  0.00  0.00  0.50  0.00  0.00  0.23  0.00  0.00
  WS02006287WS02006284    1.00   0.21  0.06  0.00  0.50  0.22  0.00  0.02  0.20  0.00
  YS02001580YS02001583    1.00   0.30  0.00  0.00  0.70  0.00  0.00  0.00  0.17  0.00
  YS02001583YS02001586    1.00   0.25  0.05  0.00  0.70  0.00  0.00  0.00  0.17  0.00
  YS02001586YS02001590    1.00   0.25  0.00  0.00  0.73  0.01  0.00  0.02  0.17  0.00
  YS02001590YS02001593    1.00   0.25  0.00  0.00  0.55  0.00  0.20  0.00  0.00  0.00
  YS02001593YS02001596    1.00   0.26  0.00  0.00  0.57  0.01  0.00  0.16  0.03  0.00
  YS02001596YS02001600    1.00   0.26  0.00  0.00  0.64  0.01  0.00  0.09  0.04  0.00
  YS02001600YS02001601    1.00   0.25  0.01  0.00  0.74  0.00  0.00  0.00  0.03  0.00
  YS02001601YS02001602    1.00   0.25  0.00  0.00  0.75  0.00  0.00  0.00  0.00  0.00
  YS02001602YS02001605    1.00   0.26  0.00  0.00  0.74  0.00  0.00  0.00  0.00  0.00
  YS02001605YS02001607    1.00   0.26  0.00  0.00  0.74  0.00  0.00  0.00  0.00  0.00
  YS02001607YS02001610    1.00   0.26  0.00  0.00  0.74  0.00  0.00  0.00  0.01  0.00
  YS02001610YS02001613    1.00   0.25  0.00  0.00  0.75  0.00  0.00  0.00  0.00  0.00
  YS02001613YS02001616    1.00   0.25  0.00  0.00  0.75  0.00  0.00  0.00  0.00  0.00
  YS02001616YS02001619    1.00   0.25  0.00  0.00  0.75  0.00  0.00  0.00  0.00  0.00
  YS02001619YS02001622    1.00   0.25  0.00  0.00  0.74  0.01  0.00  0.00  0.00  0.00
  YS02001622YS02001625    1.00   0.25  0.00  0.00  0.74  0.01  0.00  0.00  0.02  0.00
  YS02001625YS02001629    1.00   0.25  0.03  0.00  0.63  0.00  0.08  0.00  0.00  0.00
  YS02001629YS02163301    1.00   0.26  0.01  0.00  0.73  0.00  0.00  0.00  0.00  0.00
  YS02001633YS02163601    1.00   0.00  0.01  0.00  0.99  0.00  0.00  0.00  0.26  0.00
  YS02001641YS02001644    1.00   0.00  0.01  0.00  0.99  0.00  0.00  0.00  0.00  0.00
  YS02001644YS02001647    1.00   0.00  0.27  0.00  0.73  0.00  0.00  0.00  0.00  0.00
  YS02001647YS02001649    1.00   0.00  0.27  0.00  0.72  0.01  0.00  0.00  0.05  0.00
  YS02001649YS02001757    1.00   0.00  0.00  0.00  1.00  0.00  0.00  0.00  0.27  0.00
  YS02001652YS02001649    1.00   0.00  0.00  0.00  0.98  0.02  0.00  0.00  0.25  0.00
  YS02001655YS02001652    1.00   0.00  0.00  0.00  0.68  0.00  0.00  0.31  0.04  0.00
  YS02001658YS02001655    1.00   0.00  0.26  0.00  0.65  0.09  0.00  0.00  0.10  0.00
  YS02001661YS02001658    1.00   0.26  0.00  0.00  0.59  0.15  0.00  0.00  0.15  0.00
  YS02001664YS02001661    1.00   0.25  0.00  0.00  0.68  0.07  0.00  0.00  0.33  0.00
  YS02001745YS02001748    1.00   0.00  0.00  0.00  0.58  0.00  0.00  0.41  0.07  0.00
  YS02001748YS02001751    1.00   0.00  0.00  0.00  0.92  0.08  0.00  0.00  0.32  0.00
  YS02001751YS02001754    1.00   0.00  0.00  0.00  0.68  0.01  0.00  0.32  0.04  0.00
  YS02001754YS02001757    1.00   0.00  0.00  0.00  0.99  0.01  0.00  0.00  0.30  0.00
  YS02001757CaochengTiaoxuchi    1.00   0.00  0.00  0.00  0.97  0.03  0.00  0.00  0.28  0.00
  YS02001759YS02001757    1.00   0.00  0.00  0.00  0.98  0.02  0.00  0.00  0.13  0.00
  YS02001762YS02001759    1.00   0.00  0.00  0.00  1.00  0.00  0.00  0.00  0.02  0.00
  YS02001765YS02001762    1.00   0.00  0.00  0.00  1.00  0.00  0.00  0.00  0.23  0.00
  YS02001767YS02001765    1.00   0.00  0.00  0.00  1.00  0.00  0.00  0.00  0.00  0.00
  YS02001770YS02001767    1.00   0.00  0.00  0.00  1.00  0.00  0.00  0.00  0.00  0.00
  YS02001774YS02001770    1.00   0.00  0.25  0.00  0.75  0.00  0.00  0.00  0.01  0.00
  YS02001779YS02001774    1.00   0.00  0.00  0.00  1.00  0.00  0.00  0.00  0.28  0.00
  YS02001783YS02001784    1.00   0.00  0.28  0.00  0.72  0.00  0.00  0.00  0.04  0.00
  YS02001784YS02001785    1.00   0.00  0.00  0.00  1.00  0.00  0.00  0.00  0.25  0.00
  YS02001786YS02001788    1.00   0.00  0.00  0.00  0.76  0.24  0.00  0.00  0.00  0.00
  YS02001788YS02001790    1.00   0.00  0.00  0.00  0.48  0.52  0.00  0.00  0.45  0.00
  YS02001790YS02001791    1.00   0.00  0.00  0.00  0.03  0.97  0.00  0.00  0.19  0.00
  YS02001791YS02001793    1.00   0.00  0.00  0.00  0.00  1.00  0.00  0.00  0.05  0.00
  YS02001793JiankangQianchi    1.00   0.00  0.00  0.00  0.62  0.38  0.00  0.00  0.75  0.00
  YS02001882YS02001884    1.00   0.26  0.00  0.00  0.73  0.00  0.00  0.00  0.00  0.00
  YS02001884YS02001887    1.00   0.12  0.11  0.00  0.77  0.00  0.00  0.00  0.00  0.00
  YS02001887YS02001890    1.00   0.00  0.00  0.00  0.94  0.00  0.06  0.00  0.00  0.00
  YS02001890YS02001895    1.00   0.01  0.26  0.00  0.73  0.00  0.00  0.00  0.00  0.00
  YS02001895YS02001898    1.00   0.27  0.00  0.00  0.72  0.00  0.01  0.00  0.00  0.00
  YS02001898YS02001901    1.00   0.27  0.00  0.00  0.73  0.00  0.00  0.00  0.00  0.00
  YS02001901YS02001904    1.00   0.27  0.00  0.00  0.73  0.00  0.00  0.00  0.00  0.00
  YS02001904YS02001907    1.00   0.01  0.27  0.00  0.73  0.00  0.00  0.00  0.00  0.00
  YS02001907YS02006553    1.00   0.01  0.04  0.00  0.95  0.00  0.00  0.00  0.01  0.00
  YS02001910YS02001907    1.00   0.00  0.00  0.00  0.94  0.01  0.00  0.05  0.21  0.00
  YS02001915YS02001910    1.00   0.00  0.00  0.00  0.95  0.05  0.00  0.00  0.22  0.00
  YS02001918YS02001915    1.00   0.00  0.01  0.00  0.96  0.03  0.00  0.00  0.24  0.00
  YS02001920YS02001918    1.00   0.00  0.01  0.00  0.99  0.00  0.00  0.00  0.00  0.00
  YS02001923YS02001920    1.00   0.00  0.00  0.00  1.00  0.00  0.00  0.00  0.52  0.00
  YS02001926YS02001923    1.00   0.00  0.15  0.00  0.46  0.00  0.40  0.00  0.00  0.00
  YS02001929YS02001926    1.00   0.00  0.25  0.00  0.75  0.00  0.00  0.00  0.30  0.00
  YS02006553YS02006556    1.00   0.03  0.00  0.00  0.97  0.00  0.00  0.00  0.06  0.00
  YS02006556YS02006558    1.00   0.00  0.01  0.00  0.99  0.00  0.00  0.00  0.00  0.00
  YS02006558YS02006561    1.00   0.28  0.00  0.00  0.45  0.27  0.00  0.00  0.20  0.00
  YS02006561YS02001783    1.00   0.28  0.00  0.00  0.49  0.23  0.00  0.00  0.19  0.00
  YS02163301YS02001633    1.00   0.00  0.26  0.00  0.74  0.00  0.00  0.00  0.00  0.00
  YS02163601YS02164001    1.00   0.00  0.16  0.00  0.84  0.00  0.00  0.00  0.00  0.00
  YS02164001YS02001641    1.00   0.02  0.15  0.00  0.84  0.00  0.00  0.00  0.10  0.00
  YSB1154YSB6556          1.00   0.25  0.00  0.00  0.75  0.00  0.00  0.00  0.01  0.00
  YSB1171HS02004479       1.00   0.08  0.00  0.00  0.89  0.00  0.00  0.03  0.16  0.00
  YSB1174YSB1171          1.00   0.10  0.09  0.00  0.81  0.00  0.00  0.00  0.00  0.00
  YSB6556YSB1171          1.00   0.08  0.17  0.00  0.75  0.00  0.00  0.00  0.00  0.00
  
  
  *************************
  Conduit Surcharge Summary
  *************************
  
  ----------------------------------------------------------------------------
                                                           Hours        Hours 
                         --------- Hours Full --------   Above Full   Capacity
  Conduit                Both Ends  Upstream  Dnstream   Normal Flow   Limited
  ----------------------------------------------------------------------------
  HS02004478WS02006287        1.84      1.84      1.92      0.01         0.01
  HS02004479HS02004480        1.97      1.97      1.98      0.01         0.01
  HS02004480HS02004478        1.89      1.96      1.89      2.39         1.89
  HS02004770HS02004777        1.89      1.90      1.90      0.09         0.05
  HS02004777HS02004785        1.86      1.86      1.90      0.01         0.01
  HS02004785HS02004788        1.85      1.86      1.85      1.99         0.87
  HS02004788HS02004792        1.85      1.85      1.94      0.01         0.01
  HS02004792HS02004799        1.94      1.94      2.01      0.01         0.01
  HS02004799HS02004480        1.96      1.96      2.01      2.04         0.01
  HS02004802HS02004478        1.90      1.90      1.96      1.32         0.01
  HS02004807HS02004802        1.93      1.93      1.95      1.68         1.69
  HS02004817HS02004807        1.93      1.93      2.19      0.01         0.01
  HS02004817HS02004824        1.86      1.86      2.19      0.01         0.01
  HS02004824HS02004830        1.83      1.83      1.86      0.38         0.39
  HS02004830HS02004837        1.80      1.80      1.83      0.27         0.27
  HS02004837HS02004842        1.80      1.80      1.89      0.01         0.01
  HS02004842HS02004848        1.76      1.76      1.89      0.01         0.01
  HS02004848HS02004852        1.76      1.76      1.77      0.04         0.07
  HS02004852HS02004856        1.77      1.77      1.79      0.56         0.48
  HS02004856HS02004862        1.77      1.77      1.79      0.01         0.01
  HS02004862HS02004870        1.79      1.79      1.81      0.67         0.64
  HS02004870HS02004876        1.81      1.81      1.86      0.01         0.01
  HS02004876HS02004881        1.84      1.86      1.84      2.33         1.84
  HS02004881HS02006253        1.84      1.84      2.78      0.01         0.01
  HS02004901HS02004770        1.88      1.88      1.90      0.75         0.01
  WS02004401WS02004402        0.01      0.59      0.01      2.29         0.01
  WS02006109WS02006110        2.83      2.83      2.84      2.84         0.01
  WS02006110WS02006113        2.00      2.00      2.84      1.58         0.01
  WS02006111WS02006112        1.91      1.91      2.82      0.01         0.01
  WS02006112WS02006115        1.69      1.69      2.35      0.90         0.01
  WS02006113WS02006111        1.92      2.00      1.92      2.27         1.92
  WS02006115WS02006116        0.98      1.72      0.98      2.36         0.98
  WS02006116WS02004401        0.59      1.43      0.59      2.37         0.59
  WS02006228WS02006109        2.84      2.85      2.84      2.96         2.84
  WS02006229WS02006228        2.85      2.85      2.85      2.89         2.84
  WS02006230WS02006229        2.85      2.85      2.85      3.17         0.80
  WS02006231WS02006230        2.68      2.68      2.82      3.06         2.03
  WS02006232WS02006231        2.82      2.82      2.82      0.02         0.35
  WS02006234WS02006232        2.81      2.81      2.82      0.02         0.01
  WS02006235WS02006234        2.80      2.80      2.80      2.98         2.00
  WS02006238WS02006235        2.81      2.81      2.81      0.01         0.79
  WS02006239WS02006238        2.80      2.80      2.81      2.54         0.47
  WS02006240WS02006239        2.80      2.80      2.80      2.54         0.46
  WS02006242WS02006240        2.80      2.80      2.80      2.58         2.00
  WS02006243WS02006242        2.79      2.79      2.80      0.01         0.01
  WS02006245WS02006243        2.79      2.79      2.79      0.55         0.46
  WS02006247WS02006245        2.79      2.79      2.79      2.89         0.74
  WS02006248WS02006247        2.79      2.79      2.79      0.01         0.01
  WS02006249WS02006248        2.78      2.79      2.78      0.79         0.01
  WS02006251WS02006249        2.78      2.78      2.78      2.91         2.78
  WS02006252WS02006251        2.91      2.91      2.91      2.23         1.12
  WS02006253WS02006251        2.78      2.78      2.79      2.03         0.01
  WS02006256WS02006235        3.03      3.04      3.47      0.37         0.01
  WS02006280WS02006229        1.97      1.97      2.01      0.01         0.01
  WS02006284WS02006280        1.93      1.93      1.97      0.01         0.01
  WS02006287WS02006284        1.89      1.89      1.94      1.73         1.73
  YS02001580YS02001583        1.98      1.98      1.99      0.01         0.01
  YS02001583YS02001586        1.98      1.98      2.05      0.01         0.01
  YS02001586YS02001590        2.06      2.06      2.11      0.01         0.01
  YS02001590YS02001593        2.11      2.11      2.13      2.14         0.01
  YS02001593YS02001596        2.12      2.12      2.19      0.01         0.01
  YS02001596YS02001600        2.22      2.22      2.28      0.01         0.01
  YS02001600YS02001601        2.32      2.32      2.49      0.01         0.01
  YS02001601YS02001602        2.44      2.44      2.51      2.24         0.01
  YS02001602YS02001605        2.41      2.41      2.44      2.93         0.01
  YS02001605YS02001607        2.40      2.41      2.41      2.36         2.31
  YS02001607YS02001610        2.13      2.13      2.15      0.01         0.01
  YS02001610YS02001613        2.13      2.13      2.15      0.01         0.01
  YS02001613YS02001616        2.09      2.09      2.13      0.01         0.01
  YS02001616YS02001619        2.09      2.09      2.09      1.12         0.94
  YS02001619YS02001622        2.08      2.09      2.09      2.03         1.92
  YS02001622YS02001625        2.09      2.09      2.24      0.01         0.01
  YS02001625YS02001629        2.06      2.06      2.24      0.01         0.01
  YS02001629YS02163301        2.25      2.25      2.27      0.84         0.06
  YS02001633YS02163601        2.29      2.29      2.34      0.10         0.12
  YS02001641YS02001644        2.28      2.29      2.28      2.55         2.19
  YS02001644YS02001647        2.11      2.11      2.28      0.04         0.01
  YS02001647YS02001649        2.11      2.11      2.25      0.01         0.01
  YS02001649YS02001757        2.24      2.25      2.32      0.15         0.10
  YS02001652YS02001649        2.10      2.10      2.25      0.54         0.54
  YS02001655YS02001652        1.93      1.93      2.07      0.53         0.53
  YS02001658YS02001655        1.70      1.70      1.93      0.47         0.47
  YS02001661YS02001658        1.09      1.09      1.70      0.44         0.44
  YS02001664YS02001661        0.72      0.72      1.35      0.01         0.01
  YS02001745YS02001748        0.75      0.75      1.62      0.25         0.25
  YS02001748YS02001751        1.68      1.68      1.86      0.33         0.33
  YS02001751YS02001754        1.86      1.86      2.02      0.32         0.31
  YS02001754YS02001757        2.06      2.06      2.32      0.01         0.01
  YS02001757CaochengTiaoxuchi        2.26      2.32      2.65      0.90         0.80
  YS02001759YS02001757        2.24      2.24      2.32      0.13         0.07
  YS02001762YS02001759        2.21      2.21      2.24      0.01         0.02
  YS02001765YS02001762        2.18      2.18      2.21      0.01         0.01
  YS02001767YS02001765        2.15      2.15      2.18      0.01         0.03
  YS02001770YS02001767        2.15      2.15      2.15      1.68         0.84
  YS02001774YS02001770        2.12      2.12      2.20      0.01         0.01
  YS02001779YS02001774        2.01      2.01      2.20      0.01         0.01
  YS02001783YS02001784        1.85      1.86      1.85      1.94         1.85
  YS02001784YS02001785        1.77      1.85      1.77      2.03         1.77
  YS02001786YS02001788        0.01      1.77      0.01      2.00         0.01
  YS02001790YS02001791        0.01      0.01      0.01      1.84         0.01
  YS02001793JiankangQianchi        0.01      0.01      3.71      0.01         0.01
  YS02001882YS02001884        1.83      1.83      1.83      0.01         0.01
  YS02001884YS02001887        1.85      1.85      1.86      0.01         0.01
  YS02001887YS02001890        1.87      1.87      1.88      1.18         0.01
  YS02001890YS02001895        1.82      1.82      1.89      0.01         0.01
  YS02001895YS02001898        1.81      1.81      1.82      0.01         0.01
  YS02001898YS02001901        1.82      1.82      1.85      0.01         0.01
  YS02001901YS02001904        1.84      1.84      1.85      0.01         0.01
  YS02001904YS02001907        1.84      1.84      1.99      0.01         0.01
  YS02001907YS02006553        2.04      2.04      2.06      0.62         0.62
  YS02001910YS02001907        1.88      1.88      1.98      0.93         0.93
  YS02001915YS02001910        1.82      1.82      1.88      0.01         0.06
  YS02001918YS02001915        1.76      1.76      1.82      0.01         0.01
  YS02001920YS02001918        1.76      1.76      1.77      0.63         0.01
  YS02001923YS02001920        1.72      1.72      1.77      0.01         0.01
  YS02001926YS02001923        1.21      1.21      1.27      0.84         0.01
  YS02001929YS02001926        0.96      0.96      1.27      0.01         0.01
  YS02006553YS02006556        1.93      1.93      1.99      0.55         0.55
  YS02006556YS02006558        1.96      1.96      1.99      0.53         0.01
  YS02006558YS02006561        1.79      1.92      1.79      2.02         1.79
  YS02006561YS02001783        1.73      1.73      1.86      0.01         0.01
  YS02163301YS02001633        2.27      2.27      2.31      0.66         0.01
  YS02163601YS02164001        2.28      2.28      2.34      0.08         0.01
  YS02164001YS02001641        2.28      2.28      2.29      1.08         1.08
  YSB1154YSB6556              2.00      2.00      2.05      0.86         0.01
  YSB1171HS02004479           1.93      1.93      2.05      0.01         0.01
  YSB1174YSB1171              2.02      2.02      2.12      0.62         0.62
  YSB6556YSB1171              2.00      2.00      2.18      0.01         0.01
  
  
  ***************
  Pumping Summary
  ***************
  
  ---------------------------------------------------------------------------------------------------------
                                                  Min       Avg       Max     Total     Power    % Time Off
                        Percent   Number of      Flow      Flow      Flow    Volume     Usage    Pump Curve
  Pump                 Utilized   Start-Ups       LPS       LPS       LPS  10^6 ltr     Kw-hr    Low   High
  ---------------------------------------------------------------------------------------------------------
  CC-R1                   68.17           2      0.00    683.00    683.00     6.705    135.16    0.0   59.6
  CC-R2                   66.25           2      0.00    683.00    683.00     6.516    131.65    0.0   61.3
  CC-S1                   71.08           2      0.00    200.00    200.00     2.047     11.74    0.0   52.4
  CC-S2                   69.61           2      0.00    200.00    200.00     2.005     11.35    0.0   53.5
  JK-R1                   43.65           5      0.00   1000.00   1000.00     6.285     64.72    0.0    0.0
  JK-R2                    0.33           1      0.00   1000.00   1000.00     0.047      0.36    0.0    0.0
  JK-S                    57.14           2      0.00    300.00    300.00     2.469     38.22    0.0    0.0
  

  Analysis begun on:  Tue Jun  9 17:05:08 2026
  Analysis ended on:  Tue Jun  9 17:05:08 2026
  Total elapsed time: < 1 sec