
  EPA STORM WATER MANAGEMENT MODEL - VERSION 5.2 (Build 5.2.4)
  PYSWMM TOOLKIT API - VERSION v1.0 (2026-02-26)
  ------------------------------------------------------------

  WARNING 03: negative offset ignored for Link YS02001904YS02001907
  
  ****************
  Analysis Options
  ****************
  Flow Units ............... LPS
  Process Models:
    Rainfall/Runoff ........ YES
    RDII ................... NO
    Snowmelt ............... NO
    Groundwater ............ NO
    Flow Routing ........... YES
    Ponding Allowed ........ NO
    Water Quality .......... NO
  Infiltration Method ...... HORTON
  Flow Routing Method ...... DYNWAVE
  Surcharge Method ......... EXTRAN
  Starting Date ............ 08/28/2015 08:00:00
  Ending Date .............. 08/28/2015 12:00:00
  Antecedent Dry Days ...... 8.0
  Report Time Step ......... 00:01:00
  Wet Time Step ............ 00:01:00
  Dry Time Step ............ 00:01:00
  Routing Time Step ........ 30.00 sec
  Variable Time Step ....... YES
  Maximum Trials ........... 8
  Number of Threads ........ 4
  Head Tolerance ........... 0.001500 m
  
  
  **************************        Volume         Depth
  Runoff Quantity Continuity     hectare-m            mm
  **************************     ---------       -------
  Total Precipitation ......        42.505       701.664
  Evaporation Loss .........         0.000         0.000
  Infiltration Loss ........         0.194         3.198
  Surface Runoff ...........        42.147       695.754
  Final Storage ............         0.184         3.029
  Continuity Error (%) .....        -0.045
  
  
  **************************        Volume        Volume
  Flow Routing Continuity        hectare-m      10^6 ltr
  **************************     ---------     ---------
  Dry Weather Inflow .......         0.026         0.261
  Wet Weather Inflow .......        42.145       421.457
  Groundwater Inflow .......         0.000         0.000
  RDII Inflow ..............         0.000         0.000
  External Inflow ..........         0.015         0.148
  External Outflow .........         3.558        35.581
  Flooding Loss ............        38.465       384.655
  Evaporation Loss .........         0.000         0.000
  Exfiltration Loss ........         0.000         0.000
  Initial Stored Volume ....         0.243         2.431
  Final Stored Volume ......         0.408         4.081
  Continuity Error (%) .....        -0.005
  
  
  *************************
  Highest Continuity Errors
  *************************
  Node YS02001583 (-15.30%)
  Node YS02001884 (7.96%)
  
  
  ***************************
  Time-Step Critical Elements
  ***************************
  Link YS02001791YS02001793 (49.57%)
  Link WS02006280WS02006229 (23.17%)
  Link WS02006238WS02006235 (12.64%)
  Link WS02006115WS02006116 (1.92%)
  Link YS02001661YS02001658 (1.49%)
  
  
  ********************************
  Highest Flow Instability Indexes
  ********************************
  Link YS02001602YS02001605 (56)
  Link WS02006238WS02006235 (55)
  Link YS02001605YS02001607 (55)
  Link YS02001607YS02001610 (54)
  Link WS02006280WS02006229 (52)
  
  
  *********************************
  Most Frequent Nonconverging Nodes
  *********************************
  Node CC-1 (20.64%)
  Node CC-2 (20.64%)
  Node JK-1 (20.64%)
  Node JK-2 (20.64%)
  Node WS02004402 (20.64%)
  
  
  *************************
  Routing Time Step Summary
  *************************
  Minimum Time Step           :     0.01 sec
  Average Time Step           :     2.14 sec
  Maximum Time Step           :     9.91 sec
  % of Time in Steady State   :     0.00
  Average Iterations per Step :     4.88
  % of Steps Not Converging   :    20.64
  Time Step Frequencies       :
     30.000 - 13.228 sec      :     0.00 %
     13.228 -  5.833 sec      :     3.78 %
      5.833 -  2.572 sec      :     5.06 %
      2.572 -  1.134 sec      :    82.87 %
      1.134 -  0.500 sec      :     8.29 %
  
  
  ***************************
  Subcatchment Runoff Summary
  ***************************
  
  ------------------------------------------------------------------------------------------------------------------------------
                            Total      Total      Total      Total     Imperv       Perv      Total       Total     Peak  Runoff
                           Precip      Runon       Evap      Infil     Runoff     Runoff     Runoff      Runoff   Runoff   Coeff
  Subcatchment                 mm         mm         mm         mm         mm         mm         mm    10^6 ltr      LPS
  ------------------------------------------------------------------------------------------------------------------------------
  sub0                     701.66       0.00       0.00       1.01     651.51      48.07     699.58        0.57   506.22   0.997
  sub1                     701.66       0.00       0.00       1.58     623.02      75.34     698.37        4.64  3713.87   0.995
  sub10                    701.66       0.00       0.00       1.15     644.09      54.85     698.94        7.71  6271.68   0.996
  sub11                    701.66       0.00       0.00       1.15     644.26      54.88     699.14        8.12  6841.63   0.996
  sub12                    701.66       0.00       0.00       1.87     609.43      89.17     698.60        6.11  5348.81   0.996
  sub14                    701.66       0.00       0.00       1.29     637.19      61.71     698.90        6.65  5510.66   0.996
  sub15                    701.66       0.00       0.00       4.31     490.11     204.64     694.76       11.95  9103.37   0.990
  sub16                    701.66       0.00       0.00       4.74     469.30     225.58     694.88        7.28  5884.23   0.990
  sub17                    701.66       0.00       0.00       4.60     476.28     218.70     694.99        5.96  4794.20   0.990
  sub2                     701.66       0.00       0.00       5.31     440.83     250.54     691.37        6.44  4369.10   0.985
  sub22                    701.66       0.00       0.00       6.18     399.18     292.64     691.82       43.70 31487.82   0.986
  sub23                    701.66       0.00       0.00       5.31     441.21     252.38     693.59       33.08 25053.59   0.988
  sub3                     701.66       0.00       0.00       5.31     440.48     248.92     689.41       15.52  9761.67   0.983
  sub4                     701.66       0.00       0.00       1.58     621.61      75.09     696.70       14.53 10205.11   0.993
  sub5                     701.66       0.00       0.00       1.01     651.02      48.00     699.02        7.92  6366.65   0.996
  sub60                    701.66       0.00       0.00       1.72     616.29      82.26     698.55        9.18  7760.21   0.996
  sub61                    701.66       0.00       0.00       2.44     581.31     116.45     697.76       12.80 10810.31   0.994
  sub62                    701.66       0.00       0.00       1.15     644.04      54.84     698.88       19.15 15431.01   0.996
  sub63                    701.66       0.00       0.00       4.17     497.24     198.18     695.42       15.79 12603.47   0.991
  sub64                    701.66       0.00       0.00       2.15     594.88     102.58     697.45       16.75 13075.55   0.994
  sub65                    701.66       0.00       0.00       1.87     608.71      88.90     697.61       19.21 14815.79   0.994
  sub66                    701.66       0.00       0.00       4.17     496.31     196.17     692.48       32.29 21485.60   0.987
  sub67                    701.66       0.00       0.00       1.15     644.43      54.91     699.34       13.01 11366.09   0.997
  sub68                    701.66       0.00       0.00       2.01     602.18      95.89     698.07       19.21 15783.82   0.995
  sub69                    701.66       0.00       0.00       2.15     595.81     103.07     698.89       25.87 19772.27   0.996
  sub7                     701.66       0.00       0.00       1.29     637.32      61.74     699.06        2.36  2010.09   0.996
  sub70                    701.66       0.00       0.00       4.88     461.98     229.45     691.43       19.98 12332.28   0.985
  sub71                    701.66       0.00       0.00       1.15     643.68      54.80     698.47       18.27 14169.86   0.995
  sub72                    701.66       0.00       0.00       1.01     650.15      47.92     698.07        9.60  7132.22   0.995
  sub8                     701.66       0.00       0.00       1.29     637.23      61.72     698.95        4.47  3731.90   0.996
  sub9                     701.66       0.00       0.00       1.29     637.21      61.71     698.92        3.36  2795.59   0.996
  
  
  ******************
  Node Depth Summary
  ******************
  
  ---------------------------------------------------------------------------------
                                 Average  Maximum  Maximum  Time of Max    Reported
                                   Depth    Depth      HGL   Occurrence   Max Depth
  Node                 Type       Meters   Meters   Meters  days hr:min      Meters
  ---------------------------------------------------------------------------------
  HS02004478           JUNCTION     0.94     1.59    10.82     0  01:20        1.59
  HS02004479           JUNCTION     1.03     1.69    10.89     0  01:14        1.66
  HS02004480           JUNCTION     1.00     1.67    10.91     0  01:14        1.63
  HS02004770           JUNCTION     0.89     1.42    11.25     0  01:10        1.42
  HS02004777           JUNCTION     0.92     1.48    11.28     0  01:10        1.48
  HS02004785           JUNCTION     0.82     1.49    11.39     0  01:10        1.40
  HS02004788           JUNCTION     0.80     1.42    11.32     0  01:10        1.42
  HS02004792           JUNCTION     0.97     1.60    11.12     0  01:09        1.60
  HS02004799           JUNCTION     1.11     1.76    10.97     0  01:14        1.76
  HS02004802           JUNCTION     1.09     1.81    10.94     0  01:21        1.81
  HS02004807           JUNCTION     1.14     1.92    11.09     0  01:14        1.92
  HS02004817           JUNCTION     1.50     2.43    11.28     0  01:14        2.42
  HS02004824           JUNCTION     1.09     2.01    11.41     0  01:14        2.01
  HS02004830           JUNCTION     1.07     2.03    11.50     0  01:14        2.03
  HS02004837           JUNCTION     1.02     2.04    11.62     0  01:32        2.04
  HS02004842           JUNCTION     1.29     2.22    11.49     0  01:13        2.22
  HS02004848           JUNCTION     1.03     2.07    11.67     0  01:30        2.07
  HS02004852           JUNCTION     1.05     2.12    11.63     0  01:13        2.09
  HS02004856           JUNCTION     1.09     2.07    11.50     0  01:13        2.07
  HS02004862           JUNCTION     1.05     2.00    11.38     0  01:13        2.00
  HS02004870           JUNCTION     1.06     2.10    11.39     0  01:27        2.10
  HS02004876           JUNCTION     1.16     2.26    11.29     0  01:26        2.26
  HS02004881           JUNCTION     1.02     2.15    11.18     0  01:32        2.15
  HS02004901           JUNCTION     0.88     1.42    11.28     0  01:10        1.42
  WS02004401           JUNCTION     0.73     1.19     7.19     0  01:34        1.19
  WS02006109           JUNCTION     1.90     2.64     9.26     0  01:22        2.64
  WS02006110           JUNCTION     1.64     2.76     9.34     0  01:08        2.47
  WS02006111           JUNCTION     0.88     1.99     8.70     0  01:33        1.99
  WS02006112           JUNCTION     1.41     2.68     8.56     0  01:32        2.68
  WS02006113           JUNCTION     1.05     1.99     8.89     0  01:32        1.99
  WS02006115           JUNCTION     0.95     1.88     8.02     0  01:32        1.88
  WS02006116           JUNCTION     0.88     1.61     7.65     0  01:34        1.61
  WS02006228           JUNCTION     2.17     3.03     9.68     0  02:05        3.02
  WS02006229           JUNCTION     2.29     3.22     9.92     0  02:16        3.22
  WS02006230           JUNCTION     1.99     2.65     9.39     0  01:10        2.65
  WS02006231           JUNCTION     1.60     2.24     9.36     0  01:09        2.19
  WS02006232           JUNCTION     1.64     2.18     9.22     0  01:09        2.18
  WS02006234           JUNCTION     1.48     1.96     9.12     0  01:10        1.96
  WS02006235           JUNCTION     1.47     2.00     9.16     0  01:10        1.95
  WS02006238           JUNCTION     1.48     2.12     9.27     0  01:10        1.94
  WS02006239           JUNCTION     1.38     2.03     9.24     0  01:10        1.84
  WS02006240           JUNCTION     1.27     2.10     9.39     0  01:10        1.70
  WS02006242           JUNCTION     1.25     1.55     8.82     0  01:10        1.55
  WS02006243           JUNCTION     1.11     1.48     8.90     0  01:11        1.37
  WS02006245           JUNCTION     1.04     1.56     9.04     0  01:11        1.27
  WS02006247           JUNCTION     1.03     1.47     8.97     0  01:11        1.23
  WS02006248           JUNCTION     0.94     1.10     8.69     0  01:11        1.10
  WS02006249           JUNCTION     0.95     1.09     8.69     0  01:11        1.09
  WS02006251           JUNCTION     1.57     2.21     9.88     0  01:28        2.21
  WS02006252           JUNCTION     1.07     1.50     9.74     0  00:00        1.50
  WS02006253           JUNCTION     2.10     3.46    11.10     0  01:37        3.46
  WS02006256           JUNCTION     1.88     2.35     9.28     0  00:00        2.35
  WS02006280           JUNCTION     1.06     1.76    10.03     0  02:05        1.76
  WS02006284           JUNCTION     1.28     1.98    10.37     0  02:05        1.98
  WS02006287           JUNCTION     1.06     1.76    10.71     0  02:05        1.76
  YS02001580           JUNCTION     0.47     1.05     9.59     0  01:11        0.78
  YS02001583           JUNCTION     0.50     1.14     9.64     0  01:11        0.82
  YS02001586           JUNCTION     0.74     1.13     9.30     0  01:10        1.13
  YS02001590           JUNCTION     0.92     1.40     9.26     0  01:11        1.37
  YS02001593           JUNCTION     0.84     1.38     9.24     0  01:11        1.28
  YS02001596           JUNCTION     1.11     1.71     9.13     0  01:11        1.65
  YS02001600           JUNCTION     1.28     1.87     9.00     0  01:10        1.87
  YS02001601           JUNCTION     1.48     2.06     8.90     0  01:09        2.06
  YS02001602           JUNCTION     1.34     1.87     8.77     0  01:10        1.87
  YS02001605           JUNCTION     1.26     1.78     8.68     0  01:10        1.78
  YS02001607           JUNCTION     1.16     1.68     8.53     0  01:12        1.65
  YS02001610           JUNCTION     1.20     1.68     8.48     0  01:12        1.68
  YS02001613           JUNCTION     1.17     1.67     8.51     0  01:12        1.67
  YS02001616           JUNCTION     1.11     1.61     8.52     0  01:12        1.61
  YS02001619           JUNCTION     1.10     1.61     8.54     0  01:12        1.61
  YS02001622           JUNCTION     1.09     1.60     8.50     0  02:05        1.60
  YS02001625           JUNCTION     1.29     1.78     8.38     0  01:12        1.78
  YS02001629           JUNCTION     1.32     1.85     8.40     0  01:12        1.85
  YS02001633           JUNCTION     1.44     2.08     8.53     0  01:21        2.08
  YS02001641           JUNCTION     1.38     1.97     8.41     0  01:29        1.97
  YS02001644           JUNCTION     1.37     1.92     8.35     0  01:15        1.92
  YS02001647           JUNCTION     1.20     1.79     8.40     0  01:25        1.79
  YS02001649           JUNCTION     1.39     2.05     8.44     0  01:25        2.05
  YS02001652           JUNCTION     1.28     2.15     8.75     0  01:30        2.15
  YS02001655           JUNCTION     1.14     2.20     9.05     0  01:29        2.20
  YS02001658           JUNCTION     1.00     2.30     9.44     0  01:29        2.30
  YS02001661           JUNCTION     0.91     2.44     9.85     0  01:30        2.44
  YS02001664           JUNCTION     0.64     2.31    10.23     0  01:30        2.31
  YS02001745           JUNCTION     0.70     2.35     9.87     0  01:33        2.35
  YS02001748           JUNCTION     0.95     2.27     9.35     0  01:31        2.27
  YS02001751           JUNCTION     1.06     2.20     9.07     0  01:34        2.19
  YS02001754           JUNCTION     1.23     2.18     8.79     0  01:33        2.18
  YS02001757           JUNCTION     1.48     2.21     8.47     0  01:31        2.21
  YS02001759           JUNCTION     1.43     2.21     8.57     0  01:28        2.21
  YS02001762           JUNCTION     1.40     2.15     8.55     0  01:28        2.15
  YS02001765           JUNCTION     1.35     2.09     8.54     0  01:31        2.08
  YS02001767           JUNCTION     1.32     2.02     8.51     0  01:29        2.01
  YS02001770           JUNCTION     1.31     1.95     8.44     0  01:21        1.95
  YS02001774           JUNCTION     1.36     2.01     8.43     0  01:21        2.01
  YS02001779           JUNCTION     1.12     1.68     8.37     0  01:14        1.68
  YS02001783           JUNCTION     0.81     1.48     7.62     0  01:30        1.48
  YS02001784           JUNCTION     0.75     1.31     7.38     0  01:32        1.31
  YS02001786           JUNCTION     0.59     0.99     7.02     0  01:31        0.98
  YS02001788           JUNCTION     0.42     0.68     6.65     0  01:53        0.68
  YS02001790           JUNCTION     0.47     0.74     6.39     0  01:26        0.73
  YS02001791           JUNCTION     0.28     0.46     5.93     0  01:56        0.46
  YS02001793           JUNCTION     0.15     0.30     5.13     0  02:19        0.28
  YS02001882           JUNCTION     1.03     1.83     8.55     0  01:12        1.83
  YS02001884           JUNCTION     1.12     1.93     8.55     0  01:12        1.92
  YS02001887           JUNCTION     1.20     2.00     8.54     0  01:28        2.00
  YS02001890           JUNCTION     1.18     1.81     8.32     0  01:12        1.81
  YS02001895           JUNCTION     0.95     1.75     8.50     0  01:12        1.56
  YS02001898           JUNCTION     0.95     1.77     8.51     0  01:12        1.57
  YS02001901           JUNCTION     1.05     1.69     8.30     0  02:05        1.67
  YS02001904           JUNCTION     1.03     1.65     8.28     0  02:05        1.64
  YS02001907           JUNCTION     1.33     1.96     8.25     0  01:13        1.96
  YS02001910           JUNCTION     1.23     2.01     8.52     0  01:31        2.01
  YS02001915           JUNCTION     1.13     2.00     8.72     0  01:21        2.00
  YS02001918           JUNCTION     0.91     1.81     8.88     0  01:14        1.81
  YS02001920           JUNCTION     1.01     2.14     9.15     0  01:14        2.03
  YS02001923           JUNCTION     0.85     2.03     9.29     0  01:14        1.91
  YS02001926           JUNCTION     0.81     1.90     9.35     0  01:14        1.88
  YS02001929           JUNCTION     0.67     1.78     9.47     0  01:14        1.78
  YS02006553           JUNCTION     1.36     2.13     8.42     0  01:31        2.13
  YS02006556           JUNCTION     1.37     2.33     8.64     0  01:31        2.33
  YS02006558           JUNCTION     1.43     2.50     8.77     0  01:29        2.50
  YS02006561           JUNCTION     0.59     1.21     7.87     0  01:30        1.20
  YS02163301           JUNCTION     1.36     1.97     8.49     0  02:05        1.97
  YS02163601           JUNCTION     1.45     2.08     8.48     0  02:06        2.07
  YS02164001           JUNCTION     1.38     1.98     8.44     0  02:05        1.97
  YSB1154              JUNCTION     1.26     2.10    11.16     0  01:10        2.10
  YSB1171              JUNCTION     1.30     1.95    10.85     0  01:11        1.95
  YSB1174              JUNCTION     1.17     1.95    11.06     0  01:10        1.95
  YSB6556              JUNCTION     1.10     1.80    10.97     0  01:10        1.80
  CC-1                 OUTFALL      0.00     0.00     0.00     0  00:00        0.00
  CC-2                 OUTFALL      0.00     0.00     0.00     0  00:00        0.00
  JK-1                 OUTFALL      0.00     0.00     0.00     0  00:00        0.00
  JK-2                 OUTFALL      0.00     0.00     0.00     0  00:00        0.00
  WS02004402           OUTFALL      0.59     0.88     6.84     0  01:34        0.88
  CC-storage           STORAGE      1.70     2.30     7.80     0  02:14        2.30
  JK-storage           STORAGE      2.28     4.23     5.03     0  02:43        4.20
  
  
  *******************
  Node Inflow Summary
  *******************
  
  -------------------------------------------------------------------------------------------------
                                  Maximum  Maximum                  Lateral       Total        Flow
                                  Lateral    Total  Time of Max      Inflow      Inflow     Balance
                                   Inflow   Inflow   Occurrence      Volume      Volume       Error
  Node                 Type           LPS      LPS  days hr:min    10^6 ltr    10^6 ltr     Percent
  -------------------------------------------------------------------------------------------------
  HS02004478           JUNCTION      0.00  2512.84     0  01:10           0        17.9      -0.001
  HS02004479           JUNCTION      0.00   518.56     0  01:14           0        1.68       0.121
  HS02004480           JUNCTION      0.00  2322.06     0  01:11           0          11       0.030
  HS02004770           JUNCTION  25053.59 25949.28     0  01:37        33.1        36.9       0.014
  HS02004777           JUNCTION      0.03   838.00     0  01:10    0.000432        2.65       0.312
  HS02004785           JUNCTION      0.15   841.59     0  01:10     0.00216        2.64       0.121
  HS02004788           JUNCTION   9105.04  9105.04     0  01:38          12        13.5       0.008
  HS02004792           JUNCTION  31488.10 32577.81     0  01:38        43.7        50.6       0.005
  HS02004799           JUNCTION   5510.66  6652.76     0  01:37        6.65          16       0.054
  HS02004802           JUNCTION      0.00  1239.73     0  02:39           0        8.14       0.069
  HS02004807           JUNCTION   6841.63  8038.18     0  01:37        8.12        15.5       0.046
  HS02004817           JUNCTION      0.60  1197.04     0  02:13     0.00864        7.43       0.262
  HS02004824           JUNCTION  10205.16 11077.39     0  01:38        14.5        18.4       0.010
  HS02004830           JUNCTION      0.15  1048.39     0  01:48     0.00216        4.13       0.056
  HS02004837           JUNCTION   6278.03  6278.03     0  01:37         7.8        8.24       0.025
  HS02004842           JUNCTION      0.00  2354.69     0  01:47           0        6.83       0.208
  HS02004848           JUNCTION   9761.67  9761.67     0  01:39        15.5        15.9       0.008
  HS02004852           JUNCTION      0.00  1104.19     0  01:12           0        5.13       0.022
  HS02004856           JUNCTION   2795.59  3676.33     0  01:37        3.36        8.49       0.021
  HS02004862           JUNCTION   4369.30  5478.50     0  01:38        6.45        12.8       0.016
  HS02004870           JUNCTION   3731.90  3731.90     0  01:37        4.47        9.24       0.011
  HS02004876           JUNCTION   3713.87  4639.85     0  01:37        4.64        12.4       0.027
  HS02004881           JUNCTION   2010.09  3000.65     0  01:37        2.36        11.9       0.009
  HS02004901           JUNCTION   5884.23  5884.23     0  01:37        7.28        7.28       0.032
  WS02004401           JUNCTION      0.00  2427.18     0  01:33           0        15.6       0.091
  WS02006109           JUNCTION      1.23  1347.07     0  01:11      0.0177          12       0.177
  WS02006110           JUNCTION      0.00  1345.05     0  01:11           0        11.2       0.199
  WS02006111           JUNCTION      0.00  1337.32     0  03:00           0        11.2       0.052
  WS02006112           JUNCTION   4794.20  5631.67     0  01:37        5.96        17.1       0.224
  WS02006113           JUNCTION      0.00  1339.98     0  01:11           0        11.2       0.133
  WS02006115           JUNCTION      0.00  2427.17     0  01:34           0        15.6       0.128
  WS02006116           JUNCTION      0.00  2427.34     0  01:34           0        15.6       0.057
  WS02006228           JUNCTION      0.00  1349.97     0  01:11           0          12       0.112
  WS02006229           JUNCTION      0.00  2327.95     0  02:41           0        19.1       0.077
  WS02006230           JUNCTION     10.28  1027.01     0  02:05       0.148        8.38       0.257
  WS02006231           JUNCTION      0.00   705.65     0  01:10           0        4.57       0.284
  WS02006232           JUNCTION      0.00   705.09     0  01:10           0        4.56       0.371
  WS02006234           JUNCTION      0.00   704.67     0  01:10           0        4.54       0.330
  WS02006235           JUNCTION      0.00   734.09     0  01:10           0        4.29       0.179
  WS02006238           JUNCTION      0.00   714.26     0  01:10           0        4.13       0.157
  WS02006239           JUNCTION      0.00   749.42     0  01:10           0        4.11       0.289
  WS02006240           JUNCTION      0.00   904.59     0  01:10           0         4.1       0.322
  WS02006242           JUNCTION      0.00   859.82     0  01:10           0         4.1       0.368
  WS02006243           JUNCTION      0.00   686.75     0  01:11           0         3.1       0.499
  WS02006245           JUNCTION      0.00   449.83     0  01:11           0        3.11       0.593
  WS02006247           JUNCTION      0.00   469.94     0  01:11           0        3.13       0.356
  WS02006248           JUNCTION      0.00   500.23     0  01:11           0        3.62       0.315
  WS02006249           JUNCTION      0.00  1411.09     0  01:33           0        11.5       0.174
  WS02006251           JUNCTION      0.08  1941.05     0  01:37     0.00111        13.5       0.135
  WS02006252           JUNCTION      0.00   820.21     0  01:31           0        6.01       0.008
  WS02006253           JUNCTION    506.22  1940.96     0  01:37       0.567        11.9       0.123
  WS02006256           JUNCTION      0.00   300.00     0  00:00           0        2.47      -0.048
  WS02006280           JUNCTION      0.00  2326.14     0  02:41           0        17.8      -0.009
  WS02006284           JUNCTION      0.10  2326.38     0  02:41     0.00138        17.8       0.008
  WS02006287           JUNCTION      0.00  2426.22     0  01:10           0        17.8       0.056
  YS02001580           JUNCTION      0.00   170.02     0  01:11           0     0.00447      -4.529
  YS02001583           JUNCTION      0.00   277.81     0  01:11           0      0.0145     -13.271
  YS02001586           JUNCTION  12332.28 12332.28     0  01:39          20          20       0.015
  YS02001590           JUNCTION      0.00   318.25     0  02:05           0        2.65       0.092
  YS02001593           JUNCTION      0.00   318.11     0  03:05           0        2.65       0.040
  YS02001596           JUNCTION      0.00   318.13     0  03:05           0        2.64       0.024
  YS02001600           JUNCTION      0.00   318.01     0  03:05           0        2.64       0.040
  YS02001601           JUNCTION  19772.27 20089.77     0  01:38        25.9        28.5       0.017
  YS02001602           JUNCTION      0.00   604.93     0  01:11           0        3.54       0.135
  YS02001605           JUNCTION      0.00   605.12     0  01:11           0        3.09       0.222
  YS02001607           JUNCTION      0.00   604.69     0  01:11           0        3.08       0.259
  YS02001610           JUNCTION      0.00   956.53     0  02:23           0        6.39       0.134
  YS02001613           JUNCTION      0.00   619.81     0  02:23           0        4.15       0.176
  YS02001616           JUNCTION      0.00   620.65     0  01:29           0        4.16       0.125
  YS02001619           JUNCTION  21485.60 21485.60     0  01:38        32.3        33.1       0.012
  YS02001622           JUNCTION      0.00  1054.00     0  02:19           0        8.15       0.068
  YS02001625           JUNCTION      0.00  1505.51     0  02:19           0        10.6       0.238
  YS02001629           JUNCTION      0.00  1138.97     0  02:07           0        6.15       0.020
  YS02001633           JUNCTION  14815.99 14815.99     0  01:38        19.2        20.7       0.061
  YS02001641           JUNCTION      0.00  1390.78     0  01:13           0         6.4       0.136
  YS02001644           JUNCTION  13075.58 14827.23     0  01:38        16.8        26.2       0.039
  YS02001647           JUNCTION      0.00  1877.42     0  01:13           0        6.08       0.066
  YS02001649           JUNCTION      0.00  3236.41     0  01:53           0        13.7       0.039
  YS02001652           JUNCTION      0.00  2429.22     0  01:34           0         9.4      -0.031
  YS02001655           JUNCTION      0.15  2731.44     0  01:41     0.00222        9.92       0.028
  YS02001658           JUNCTION      0.00  2783.72     0  01:33           0          10      -0.004
  YS02001661           JUNCTION      0.00  2783.77     0  01:32           0          10      -0.046
  YS02001664           JUNCTION  12603.47 12603.47     0  01:37        15.8        15.8      -0.000
  YS02001745           JUNCTION   7760.22  7760.22     0  01:37        9.18        9.18       0.017
  YS02001748           JUNCTION      0.04  3122.13     0  01:40    0.000648         7.5      -0.036
  YS02001751           JUNCTION      0.01  2359.96     0  01:33    0.000158        6.78       0.017
  YS02001754           JUNCTION      0.26  2359.86     0  01:33     0.00374        6.79      -0.037
  YS02001757           JUNCTION      0.00  3795.47     0  01:33           0        20.4       0.144
  YS02001759           JUNCTION  10810.35 10810.35     0  01:37        12.8        14.4       0.017
  YS02001762           JUNCTION      0.00   789.08     0  01:15           0        3.36       0.071
  YS02001765           JUNCTION      0.00   785.07     0  01:15           0        3.36       0.073
  YS02001767           JUNCTION      0.54   781.98     0  01:15      0.0077        3.36       0.075
  YS02001770           JUNCTION  15431.16 16153.32     0  01:37        19.2        20.9       0.010
  YS02001774           JUNCTION      0.00   852.14     0  02:21           0        4.25       0.083
  YS02001779           JUNCTION      0.01   851.79     0  02:19     7.2e-05        4.21      -0.006
  YS02001783           JUNCTION      0.00  1321.65     0  01:33           0        9.01       0.011
  YS02001784           JUNCTION      1.06  1322.59     0  01:31      0.0153        9.02       0.022
  YS02001786           JUNCTION      0.06  1322.55     0  01:33    0.000811        9.02       0.021
  YS02001788           JUNCTION      0.07  1322.49     0  01:33     0.00102        9.02       0.011
  YS02001790           JUNCTION      0.15  1328.53     0  01:31     0.00223        9.02       0.023
  YS02001791           JUNCTION      0.00  1369.12     0  01:31           0        9.02      -0.026
  YS02001793           JUNCTION      0.00  1359.01     0  01:56           0        9.02       0.008
  YS02001882           JUNCTION      0.00    97.80     0  01:12           0      0.0135      11.291
  YS02001884           JUNCTION      0.00   176.52     0  01:11           0       0.049       8.643
  YS02001887           JUNCTION  11366.54 11366.54     0  01:37          13          13       0.046
  YS02001890           JUNCTION      0.00  2052.03     0  01:43           0         7.8       0.090
  YS02001895           JUNCTION      0.00   543.28     0  01:12           0        3.44       0.128
  YS02001898           JUNCTION      0.00   552.99     0  01:12           0        3.44       0.008
  YS02001901           JUNCTION      0.00   565.98     0  01:12           0        3.44       0.146
  YS02001904           JUNCTION      0.00   570.04     0  01:12           0        3.46       0.126
  YS02001907           JUNCTION      0.00  4670.05     0  01:31           0        19.7       0.107
  YS02001910           JUNCTION      0.00  1993.17     0  02:18           0        11.1       0.082
  YS02001915           JUNCTION  14169.88 15391.57     0  01:38        18.3        23.6       0.013
  YS02001918           JUNCTION      0.00  1681.47     0  01:34           0        6.24       0.010
  YS02001920           JUNCTION      2.87  1681.84     0  01:34      0.0413        6.21       0.023
  YS02001923           JUNCTION      0.04  1678.99     0  01:34    0.000543        6.15      -0.010
  YS02001926           JUNCTION      0.05  1678.53     0  01:34    0.000752        6.13      -0.002
  YS02001929           JUNCTION   7132.22  7132.22     0  01:38         9.6         9.6      -0.012
  YS02006553           JUNCTION      0.00  2160.45     0  01:32           0        7.05       0.192
  YS02006556           JUNCTION      0.00  2160.49     0  01:31           0        7.07       0.136
  YS02006558           JUNCTION  15784.70 15784.70     0  01:37        19.2        21.1       0.019
  YS02006561           JUNCTION      0.00  1321.53     0  01:34           0        9.01       0.004
  YS02163301           JUNCTION      0.00  1138.85     0  01:33           0        6.16       0.131
  YS02163601           JUNCTION      0.11  1395.57     0  01:13     0.00158        6.39       0.215
  YS02164001           JUNCTION      0.00  1394.34     0  01:13           0        6.39       0.128
  YSB1154              JUNCTION   6366.65  6366.65     0  01:37        7.92        7.92       0.028
  YSB1171              JUNCTION      0.00  1629.57     0  01:27           0        7.87       0.110
  YSB1174              JUNCTION   5348.81  5348.81     0  01:37        6.11        6.11       0.034
  YSB6556              JUNCTION      0.00   725.69     0  01:33           0        3.62       0.074
  CC-1                 OUTFALL       0.00   683.00     0  00:00           0        6.83       0.000
  CC-2                 OUTFALL       0.00   683.00     0  00:00           0        6.66       0.000
  JK-1                 OUTFALL       0.00  1000.00     0  00:00           0        6.49       0.000
  JK-2                 OUTFALL       0.00  1000.00     0  00:00           0      0.0483       0.000
  WS02004402           OUTFALL       0.00  2427.23     0  01:34           0        15.6       0.000
  CC-storage           STORAGE       0.00  3484.68     0  01:18           0        21.1       0.006
  JK-storage           STORAGE       0.00  1361.42     0  01:56           0        9.17       0.026
  
  
  **********************
  Node Surcharge Summary
  **********************
  
  Surcharging occurs when water rises above the top of the highest conduit.
  ---------------------------------------------------------------------
                                               Max. Height   Min. Depth
                                   Hours       Above Crown    Below Rim
  Node                 Type      Surcharged         Meters       Meters
  ---------------------------------------------------------------------
  HS02004478           JUNCTION        1.89          0.668        0.272
  HS02004479           JUNCTION        1.98          0.887        0.163
  HS02004480           JUNCTION        2.00          0.955        0.145
  HS02004770           JUNCTION        1.96          0.720        0.000
  HS02004777           JUNCTION        1.96          0.780        0.000
  HS02004785           JUNCTION        1.92          0.790        0.000
  HS02004788           JUNCTION        1.91          0.720        0.000
  HS02004792           JUNCTION        1.98          0.900        0.000
  HS02004799           JUNCTION        2.04          1.060        0.000
  HS02004802           JUNCTION        2.00          1.096        0.114
  HS02004807           JUNCTION        1.98          1.220        0.000
  HS02004817           JUNCTION        2.21          1.729        0.011
  HS02004824           JUNCTION        1.91          1.310        0.000
  HS02004830           JUNCTION        1.89          1.330        0.000
  HS02004837           JUNCTION        1.86          1.340        0.000
  HS02004842           JUNCTION        1.94          1.520        0.000
  HS02004848           JUNCTION        1.84          1.370        0.000
  HS02004852           JUNCTION        1.86          1.420        0.000
  HS02004856           JUNCTION        1.84          1.300        0.000
  HS02004862           JUNCTION        1.86          1.300        0.000
  HS02004870           JUNCTION        1.88          1.400        0.000
  HS02004876           JUNCTION        1.92          1.560        0.000
  HS02004881           JUNCTION        1.91          1.450        0.000
  HS02004901           JUNCTION        1.95          0.720        0.000
  WS02004401           JUNCTION        0.64          0.193        1.467
  WS02006109           JUNCTION        2.86          1.820        0.000
  WS02006110           JUNCTION        2.85          1.850        0.000
  WS02006111           JUNCTION        1.95          1.183        0.687
  WS02006112           JUNCTION        2.35          1.680        0.000
  WS02006113           JUNCTION        2.04          1.193        0.737
  WS02006115           JUNCTION        1.80          0.873        1.377
  WS02006116           JUNCTION        1.07          0.547        1.743
  WS02006228           JUNCTION        2.86          2.200        0.000
  WS02006229           JUNCTION        2.04          1.045        0.025
  WS02006230           JUNCTION        2.71          1.570        0.000
  WS02006231           JUNCTION        2.84          1.530        0.000
  WS02006232           JUNCTION        2.84          1.480        0.000
  WS02006234           JUNCTION        2.83          1.240        0.000
  WS02006235           JUNCTION        2.83          1.290        0.000
  WS02006238           JUNCTION        2.83          1.405        0.025
  WS02006239           JUNCTION        2.82          1.290        0.000
  WS02006240           JUNCTION        2.82          1.390        0.000
  WS02006242           JUNCTION        2.82          0.820        0.000
  WS02006243           JUNCTION        2.81          0.770        0.000
  WS02006245           JUNCTION        2.81          0.850        0.000
  WS02006247           JUNCTION        2.81          0.760        0.000
  WS02006248           JUNCTION        2.81          0.380        0.000
  WS02006249           JUNCTION        2.81          0.390        0.000
  WS02006251           JUNCTION        2.81          1.180        0.000
  WS02006252           JUNCTION        2.94          1.100        0.000
  WS02006253           JUNCTION        2.81          2.416        0.064
  WS02006256           JUNCTION        3.49          2.050        0.000
  WS02006280           JUNCTION        2.00          0.707        0.073
  WS02006284           JUNCTION        1.97          0.695        0.105
  WS02006287           JUNCTION        1.94          0.759        0.131
  YS02001580           JUNCTION        2.02          0.450        0.000
  YS02001583           JUNCTION        2.02          0.500        0.000
  YS02001586           JUNCTION        2.10          0.510        0.000
  YS02001590           JUNCTION        2.15          0.750        0.000
  YS02001593           JUNCTION        2.15          0.756        0.084
  YS02001596           JUNCTION        2.22          0.984        0.086
  YS02001600           JUNCTION        2.31          1.190        0.000
  YS02001601           JUNCTION        2.51          1.440        0.000
  YS02001602           JUNCTION        2.46          1.270        0.000
  YS02001605           JUNCTION        2.44          1.180        0.000
  YS02001607           JUNCTION        2.16          0.680        0.000
  YS02001610           JUNCTION        2.18          0.680        0.000
  YS02001613           JUNCTION        2.17          0.672        0.028
  YS02001616           JUNCTION        2.14          0.610        0.000
  YS02001619           JUNCTION        2.12          0.610        0.000
  YS02001622           JUNCTION        2.13          0.596        0.024
  YS02001625           JUNCTION        2.27          0.780        0.000
  YS02001629           JUNCTION        2.10          0.470        0.000
  YS02001633           JUNCTION        2.33          1.060        0.000
  YS02001641           JUNCTION        2.34          0.969        0.131
  YS02001644           JUNCTION        2.33          0.920        0.000
  YS02001647           JUNCTION        2.18          0.790        0.110
  YS02001649           JUNCTION        2.31          1.050        0.000
  YS02001652           JUNCTION        2.14          1.122        0.008
  YS02001655           JUNCTION        2.01          1.200        0.000
  YS02001658           JUNCTION        1.81          1.300        0.000
  YS02001661           JUNCTION        1.21          1.374        0.016
  YS02001664           JUNCTION        0.79          1.310        0.000
  YS02001745           JUNCTION        0.83          1.350        0.000
  YS02001748           JUNCTION        1.78          1.190        0.000
  YS02001751           JUNCTION        1.97          1.195        0.005
  YS02001754           JUNCTION        2.11          1.132        0.018
  YS02001757           JUNCTION        2.39          1.210        0.000
  YS02001759           JUNCTION        2.31          1.210        0.000
  YS02001762           JUNCTION        2.29          1.150        0.000
  YS02001765           JUNCTION        2.25          1.088        0.012
  YS02001767           JUNCTION        2.22          1.017        0.013
  YS02001770           JUNCTION        2.20          0.920        0.000
  YS02001774           JUNCTION        2.27          1.009        0.041
  YS02001779           JUNCTION        2.09          0.680        0.000
  YS02001783           JUNCTION        1.92          0.683        0.917
  YS02001784           JUNCTION        1.91          0.512        0.978
  YS02001786           JUNCTION        1.84          0.189        1.241
  YS02001882           JUNCTION        1.89          0.830        0.000
  YS02001884           JUNCTION        1.90          0.870        0.000
  YS02001887           JUNCTION        1.92          0.950        0.000
  YS02001890           JUNCTION        1.93          0.760        0.000
  YS02001895           JUNCTION        1.88          0.750        0.000
  YS02001898           JUNCTION        1.88          0.740        0.000
  YS02001901           JUNCTION        1.91          0.690        0.180
  YS02001904           JUNCTION        1.90          0.650        0.200
  YS02001907           JUNCTION        2.02          0.950        0.000
  YS02001910           JUNCTION        1.94          1.014        0.086
  YS02001915           JUNCTION        1.89          1.000        0.000
  YS02001918           JUNCTION        1.84          0.810        0.000
  YS02001920           JUNCTION        1.84          1.140        0.000
  YS02001923           JUNCTION        1.32          0.820        0.000
  YS02001926           JUNCTION        1.39          0.900        0.000
  YS02001929           JUNCTION        1.06          0.780        0.000
  YS02006553           JUNCTION        2.03          1.135        0.055
  YS02006556           JUNCTION        1.98          1.293        0.057
  YS02006558           JUNCTION        1.97          1.400        0.000
  YS02006561           JUNCTION        1.81          0.407        0.743
  YS02163301           JUNCTION        2.31          0.969        0.061
  YS02163601           JUNCTION        2.37          1.077        0.003
  YS02164001           JUNCTION        2.32          0.981        0.119
  YSB1154              JUNCTION        2.07          1.400        0.000
  YSB1171              JUNCTION        2.07          1.100        0.000
  YSB1174              JUNCTION        2.06          1.250        0.000
  YSB6556              JUNCTION        2.03          1.100        0.000
  
  
  *********************
  Node Flooding Summary
  *********************
  
  Flooding refers to all water that overflows a node, whether it ponds or not.
  --------------------------------------------------------------------------
                                                             Total   Maximum
                                 Maximum   Time of Max       Flood    Ponded
                        Hours       Rate    Occurrence      Volume     Depth
  Node                 Flooded       LPS   days hr:min    10^6 ltr    Meters
  --------------------------------------------------------------------------
  HS02004770              1.88  25948.55      0  01:37      35.415     0.000
  HS02004777              0.01     14.85      0  01:10       0.000     0.000
  HS02004785              0.01     88.56      0  01:10       0.000     0.000
  HS02004788              0.62   7588.52      0  01:38       5.456     0.000
  HS02004792              1.85  31430.01      0  01:38      41.215     0.000
  HS02004799              1.60   5345.24      0  01:37       5.422     0.000
  HS02004807              1.40   6802.04      0  01:37       7.312     0.000
  HS02004824              1.27   9880.93      0  01:38      10.909     0.000
  HS02004830              0.36    176.16      0  01:39       0.199     0.000
  HS02004837              0.29   4143.59      0  01:37       1.845     0.000
  HS02004842              1.25   2354.69      0  01:47       6.138     0.000
  HS02004848              0.60   7610.78      0  01:39       6.309     0.000
  HS02004852              0.01     80.08      0  01:13       0.000     0.000
  HS02004856              0.74   2672.15      0  01:37       2.241     0.000
  HS02004862              1.18   5477.47      0  01:38       8.072     0.000
  HS02004870              0.38   2717.52      0  01:37       1.305     0.000
  HS02004876              0.61   3649.09      0  01:37       2.860     0.000
  HS02004881              0.25   1564.11      0  01:37       0.590     0.000
  HS02004901              1.02   5411.85      0  01:37       4.580     0.000
  WS02006109              0.90    450.69      0  01:34       0.789     0.000
  WS02006110              0.01    193.11      0  01:08       0.000     0.000
  WS02006112              0.31   3203.15      0  01:37       1.477     0.000
  WS02006228              0.01      1.81      0  02:08       0.000     0.000
  WS02006230              1.96    573.86      0  02:05       3.721     0.000
  WS02006231              0.01     55.86      0  01:09       0.000     0.000
  WS02006232              0.32    311.11      0  01:09       0.001     0.000
  WS02006234              2.01    129.06      0  02:05       0.901     0.000
  WS02006235              0.01     96.06      0  01:10       0.001     0.000
  WS02006239              0.01    405.82      0  01:10       0.001     0.000
  WS02006240              0.01    665.65      0  01:10       0.002     0.000
  WS02006242              2.04    823.68      0  01:10       1.010     0.000
  WS02006243              0.01    605.42      0  01:11       0.009     0.000
  WS02006245              0.01    190.61      0  01:11       0.001     0.000
  WS02006247              0.01    157.58      0  01:11       0.000     0.000
  WS02006248              2.12    377.02      0  01:13       2.528     0.000
  WS02006249              2.81   1350.24      0  01:56       9.862     0.000
  WS02006251              0.47    109.66      0  01:37       0.106     0.000
  WS02006252              1.87    820.21      0  01:35       4.400     0.000
  WS02006256              2.28    293.19      0  00:00       1.645     0.000
  YS02001580              0.01     82.99      0  01:11       0.000     0.000
  YS02001583              0.01    173.42      0  01:11       0.001     0.000
  YS02001586              1.96  12012.29      0  01:39      17.325     0.000
  YS02001590              0.01      3.73      0  01:11       0.000     0.000
  YS02001600              0.01      6.11      0  01:11       0.000     0.000
  YS02001601              2.04  19683.24      0  01:38      24.971     0.000
  YS02001602              2.02     62.04      0  02:54       0.442     0.000
  YS02001605              0.01     12.05      0  01:12       0.000     0.000
  YS02001607              0.01    277.49      0  01:12       0.002     0.000
  YS02001610              1.97    955.72      0  02:23       5.551     0.000
  YS02001616              0.18     15.72      0  01:12       0.001     0.000
  YS02001619              1.21  19815.45      0  01:38      21.641     0.000
  YS02001625              1.97   1505.28      0  02:19       9.014     0.000
  YS02001629              1.26    686.82      0  01:30       2.226     0.000
  YS02001633              0.70  12767.18      0  01:38       9.669     0.000
  YS02001644              1.77  14824.16      0  01:38      23.123     0.000
  YS02001649              0.78   2389.70      0  01:53       4.867     0.000
  YS02001655              0.51    303.20      0  01:33       0.524     0.000
  YS02001658              0.46     52.15      0  01:33       0.084     0.000
  YS02001664              0.45   9817.21      0  01:37       5.786     0.000
  YS02001745              0.23   4633.32      0  01:37       1.678     0.000
  YS02001748              0.31    768.81      0  01:45       0.728     0.000
  YS02001757              0.30    357.73      0  01:50       0.178     0.000
  YS02001759              0.46   8672.84      0  01:37       4.913     0.000
  YS02001762              0.04      1.67      0  01:31       0.000     0.000
  YS02001770              1.06  15300.20      0  01:37      15.071     0.000
  YS02001779              1.76    851.49      0  02:19       4.192     0.000
  YS02001882              0.01     14.73      0  01:12       0.000     0.000
  YS02001884              0.01      8.45      0  01:12       0.000     0.000
  YS02001887              0.49   9302.40      0  01:37       5.206     0.000
  YS02001890              1.42   1536.42      0  01:33       4.349     0.000
  YS02001895              0.01     15.26      0  01:12       0.000     0.000
  YS02001898              0.01     98.95      0  01:12       0.000     0.000
  YS02001907              1.81   4669.62      0  01:31      17.768     0.000
  YS02001915              0.94  13394.38      0  01:38      12.439     0.000
  YS02001918              0.62    459.73      0  01:34       0.867     0.000
  YS02001920              0.01     95.66      0  01:14       0.000     0.000
  YS02001923              0.01    173.73      0  01:14       0.001     0.000
  YS02001926              0.01    516.28      0  01:14       0.003     0.000
  YS02001929              0.47   5451.18      0  01:38       3.489     0.000
  YS02006558              0.44  12298.97      0  01:37       6.919     0.000
  YSB1154                 0.77   5640.27      0  01:37       4.298     0.000
  YSB1171                 1.78   1629.40      0  01:27       7.431     0.000
  YSB1174                 0.61   4592.25      0  01:37       2.861     0.000
  YSB6556                 0.85     85.86      0  02:04       0.249     0.000
  CC-storage              0.78    303.82      0  02:14       0.463     0.000
  
  
  **********************
  Storage Volume Summary
  **********************
  
  ------------------------------------------------------------------------------------------------
                         Average    Avg   Evap  Exfil     Maximum    Max    Time of Max    Maximum
                          Volume   Pcnt   Pcnt   Pcnt      Volume   Pcnt     Occurrence    Outflow
  Storage Unit           1000 m³   Full   Loss   Loss     1000 m³   Full    days hr:min        LPS
  ------------------------------------------------------------------------------------------------
  CC-storage               4.735   73.9    0.0    0.0       6.410  100.0       0  02:14    1783.54
  JK-storage               0.114   39.2    0.0    0.0       0.213   73.0       0  02:43    2300.00
  
  
  ***********************
  Outfall Loading Summary
  ***********************
  
  -----------------------------------------------------------
                         Flow       Avg       Max       Total
                         Freq      Flow      Flow      Volume
  Outfall Node           Pcnt       LPS       LPS    10^6 ltr
  -----------------------------------------------------------
  CC-1                  81.02    683.00    683.00       6.829
  CC-2                  79.05    683.00    683.00       6.656
  JK-1                  53.50   1000.00   1000.00       6.489
  JK-2                   0.31   1000.00   1000.00       0.048
  WS02004402            95.11   1334.68   2427.23      15.558
  -----------------------------------------------------------
  System                61.80   4700.68   4793.23      35.581
  
  
  ********************
  Link Flow Summary
  ********************
  
  -----------------------------------------------------------------------------
                                 Maximum  Time of Max   Maximum    Max/    Max/
                                  |Flow|   Occurrence   |Veloc|    Full    Full
  Link                 Type          LPS  days hr:min     m/sec    Flow   Depth
  -----------------------------------------------------------------------------
  HS02004478WS02006287 CONDUIT   2426.22     0  01:10      3.03    0.68    1.00
  HS02004479HS02004480 CONDUIT    518.35     0  01:13      0.74    0.50    1.00
  HS02004480HS02004478 CONDUIT   2321.73     0  01:10      3.32    9.78    1.00
  HS02004770HS02004777 CONDUIT    837.97     0  01:10      1.20    1.53    1.00
  HS02004777HS02004785 CONDUIT    841.44     0  01:10      1.33    1.04    1.00
  HS02004785HS02004788 CONDUIT    810.94     0  01:10      1.37    6.11    1.00
  HS02004788HS02004792 CONDUIT   1089.71     0  01:41      1.56    0.72    1.00
  HS02004792HS02004799 CONDUIT   1755.28     0  01:11      2.51    1.07    1.00
  HS02004799HS02004480 CONDUIT   1935.18     0  01:11      2.76    2.45    1.00
  HS02004802HS02004478 CONDUIT   1239.81     0  02:41      1.77    1.09    1.00
  HS02004807HS02004802 CONDUIT   1239.73     0  02:39      1.77    2.37    1.00
  HS02004817HS02004807 CONDUIT   1197.06     0  02:19      1.71    0.71    1.00
  HS02004817HS02004824 CONDUIT   1196.44     0  02:13      1.71    0.54    1.00
  HS02004824HS02004830 CONDUIT    872.23     0  01:51      1.25    1.14    1.00
  HS02004830HS02004837 CONDUIT   1048.24     0  01:48      1.50    1.04    1.00
  HS02004837HS02004842 CONDUIT   1084.84     0  01:48      1.55    0.65    1.00
  HS02004842HS02004848 CONDUIT   1269.84     0  01:59      1.81    0.74    1.00
  HS02004848HS02004852 CONDUIT   1104.19     0  01:12      1.71    1.24    1.00
  HS02004852HS02004856 CONDUIT   1097.00     0  01:13      1.57    1.25    1.00
  HS02004856HS02004862 CONDUIT   1159.45     0  01:13      1.74    1.16    1.00
  HS02004862HS02004870 CONDUIT   1281.61     0  01:13      1.96    1.38    1.00
  HS02004870HS02004876 CONDUIT   1292.02     0  02:34      1.98    0.86    1.00
  HS02004876HS02004881 CONDUIT   1518.61     0  02:29      2.32   16.15    1.00
  HS02004881HS02006253 CONDUIT   1742.20     0  02:03      2.94    0.34    1.00
  HS02004901HS02004770 CONDUIT    469.86     0  01:54      0.67    1.00    1.00
  WS02004401WS02004402 CONDUIT   2427.23     0  01:34      3.17    2.91    0.94
  WS02006109WS02006110 CONDUIT   1345.05     0  01:11      2.68    2.59    1.00
  WS02006110WS02006113 CONDUIT   1339.98     0  01:11      2.67    1.22    1.00
  WS02006111WS02006112 CONDUIT   1345.61     0  01:11      2.68    0.64    1.00
  WS02006112WS02006115 CONDUIT   2427.17     0  01:34      3.09    1.43    1.00
  WS02006113WS02006111 CONDUIT   1337.32     0  03:00      2.83    1.60    1.00
  WS02006115WS02006116 CONDUIT   2427.34     0  01:34      3.09    3.12    1.00
  WS02006116WS02004401 CONDUIT   2427.18     0  01:33      3.09    3.35    1.00
  WS02006228WS02006109 CONDUIT   1345.84     0  01:11      2.68    5.88    1.00
  WS02006229WS02006228 CONDUIT   1349.97     0  01:11      2.69    4.47    1.00
  WS02006230WS02006229 CONDUIT   1016.73     0  02:05      2.64   22.63    1.00
  WS02006231WS02006230 CONDUIT    705.65     0  01:10      1.83   10.70    1.00
  WS02006232WS02006231 CONDUIT    705.09     0  01:10      1.83    1.48    1.00
  WS02006234WS02006232 CONDUIT    704.67     0  01:10      2.08    1.43    1.00
  WS02006235WS02006234 CONDUIT    733.93     0  01:10      1.92    7.74    1.00
  WS02006238WS02006235 CONDUIT    714.26     0  01:10      2.13    1.59    1.00
  WS02006239WS02006238 CONDUIT    720.51     0  01:10      2.34    2.31    1.00
  WS02006240WS02006239 CONDUIT    707.04     0  01:10      1.98    2.22    1.00
  WS02006242WS02006240 CONDUIT    526.44     0  01:10      1.38    2.09    1.00
  WS02006243WS02006242 CONDUIT    417.09     0  04:00      1.34    0.89    1.00
  WS02006245WS02006243 CONDUIT    417.09     0  04:00      1.39    1.23    1.00
  WS02006247WS02006245 CONDUIT    449.83     0  01:11      1.37    3.57    1.00
  WS02006248WS02006247 CONDUIT    469.94     0  01:11      1.38    1.02    1.00
  WS02006249WS02006248 CONDUIT    500.23     0  01:11      1.38    2.74    1.00
  WS02006251WS02006249 CONDUIT   1411.09     0  01:33      3.67    4.07    1.00
  WS02006252WS02006251 CONDUIT    420.21     0  01:31     24.89    1.54    1.00
  WS02006253WS02006251 CONDUIT   1940.97     0  01:37      5.04    5.82    1.00
  WS02006256WS02006235 CONDUIT    288.93     0  00:00      4.23    3.06    1.00
  WS02006280WS02006229 CONDUIT   2327.95     0  02:41      5.31    0.50    1.00
  WS02006284WS02006280 CONDUIT   2326.14     0  02:41      3.35    0.97    1.00
  WS02006287WS02006284 CONDUIT   2326.28     0  02:41      3.11    1.08    1.00
  YS02001580YS02001583 CONDUIT    170.02     0  01:11      0.90    0.66    1.00
  YS02001583YS02001586 CONDUIT    193.32     0  01:11      0.91    0.29    1.00
  YS02001586YS02001590 CONDUIT    318.25     0  02:05      1.32    0.56    1.00
  YS02001590YS02001593 CONDUIT    318.11     0  03:05      1.13    2.00    1.00
  YS02001593YS02001596 CONDUIT    318.13     0  03:05      1.71    0.50    1.00
  YS02001596YS02001600 CONDUIT    318.01     0  03:05      1.27    0.62    1.00
  YS02001600YS02001601 CONDUIT    318.04     0  03:03      1.12    0.55    1.00
  YS02001601YS02001602 CONDUIT    604.93     0  01:11      2.14    2.19    1.00
  YS02001602YS02001605 CONDUIT    605.12     0  01:11      2.14   12.81    1.00
  YS02001605YS02001607 CONDUIT    604.69     0  01:11      2.14    3.32    1.00
  YS02001607YS02001610 CONDUIT    586.93     0  01:10      0.88    0.56    1.00
  YS02001610YS02001613 CONDUIT    619.98     0  02:23      0.81    0.71    1.00
  YS02001613YS02001616 CONDUIT    619.81     0  02:23      0.84    0.53    1.00
  YS02001616YS02001619 CONDUIT    620.65     0  01:29      0.88    1.08    1.00
  YS02001619YS02001622 CONDUIT   1054.00     0  02:19      1.84    1.55    1.00
  YS02001622YS02001625 CONDUIT   1053.72     0  02:19      1.34    0.56    1.00
  YS02001625YS02001629 CONDUIT    879.13     0  01:13      1.12    0.42    1.00
  YS02001629YS02163301 CONDUIT   1138.97     0  02:07      1.45    1.40    1.00
  YS02001633YS02163601 CONDUIT   1395.46     0  01:13      1.78    1.46    1.00
  YS02001641YS02001644 CONDUIT   1390.11     0  01:13      1.77    4.49    1.00
  YS02001644YS02001647 CONDUIT   1877.42     0  01:13      2.39    1.10    1.00
  YS02001647YS02001649 CONDUIT   1889.89     0  01:13      2.41    1.00    1.00
  YS02001649YS02001757 CONDUIT   2160.86     0  01:13      2.75    1.31    1.00
  YS02001652YS02001649 CONDUIT   2429.24     0  01:31      3.09    1.20    1.00
  YS02001655YS02001652 CONDUIT   2429.22     0  01:34      3.09    1.18    1.00
  YS02001658YS02001655 CONDUIT   2731.29     0  01:41      3.48    1.16    1.00
  YS02001661YS02001658 CONDUIT   2783.72     0  01:33      3.54    1.09    1.00
  YS02001664YS02001661 CONDUIT   2783.77     0  01:32      3.54    0.87    1.00
  YS02001745YS02001748 CONDUIT   3122.08     0  01:40      3.98    1.20    1.00
  YS02001748YS02001751 CONDUIT   2359.95     0  01:33      3.00    1.19    1.00
  YS02001751YS02001754 CONDUIT   2359.60     0  01:33      3.00    1.14    1.00
  YS02001754YS02001757 CONDUIT   2359.81     0  01:33      3.00    0.95    1.00
  YS02001757CaochengTiaoxuchi CONDUIT   3484.68     0  01:18      4.51    1.51    1.00
  YS02001759YS02001757 CONDUIT   1498.38     0  01:30      1.91    1.06    1.00
  YS02001762YS02001759 CONDUIT    792.84     0  01:15      1.01    0.91    1.00
  YS02001765YS02001762 CONDUIT    789.08     0  01:15      1.00    0.74    1.00
  YS02001767YS02001765 CONDUIT    785.07     0  01:15      1.00    0.99    1.00
  YS02001770YS02001767 CONDUIT    781.45     0  01:15      1.01    3.10    1.00
  YS02001774YS02001770 CONDUIT    852.14     0  02:21      1.08    0.54    1.00
  YS02001779YS02001774 CONDUIT    851.78     0  02:19      1.08    0.43    1.00
  YS02001783YS02001784 CONDUIT   1321.53     0  01:31      2.63    1.82    1.00
  YS02001784YS02001785 CONDUIT   1322.49     0  01:33      2.63    3.08    1.00
  YS02001786YS02001788 CONDUIT   1322.42     0  01:33      2.74    2.55    0.92
  YS02001788YS02001790 CONDUIT   1328.37     0  01:31      2.89    0.98    0.87
  YS02001790YS02001791 CONDUIT   1369.12     0  01:31      3.53    1.49    0.73
  YS02001791YS02001793 CONDUIT   1359.01     0  01:56      6.89    0.58    0.45
  YS02001793JiankangQianchi CONDUIT   1361.42     0  01:56      2.71    0.11    0.65
  YS02001882YS02001884 CONDUIT     97.80     0  01:12      0.42    0.11    1.00
  YS02001884YS02001887 CONDUIT    176.52     0  01:11      0.36    0.24    1.00
  YS02001887YS02001890 CONDUIT   2052.03     0  01:43      2.61    3.51    1.00
  YS02001890YS02001895 CONDUIT    543.28     0  01:12      0.69    0.25    1.00
  YS02001895YS02001898 CONDUIT    552.99     0  01:12      0.72    0.96    1.00
  YS02001898YS02001901 CONDUIT    565.98     0  01:12      0.72    0.37    1.00
  YS02001901YS02001904 CONDUIT    570.04     0  01:12      0.73    0.88    1.00
  YS02001904YS02001907 CONDUIT    573.48     0  01:12      0.73    0.20    1.00
  YS02001907YS02006553 CONDUIT   2160.56     0  01:33      2.40    2.54    1.00
  YS02001910YS02001907 CONDUIT   1993.03     0  02:17      2.54    1.12    1.00
  YS02001915YS02001910 CONDUIT   1993.17     0  02:18      2.54    0.99    1.00
  YS02001918YS02001915 CONDUIT   1221.69     0  02:03      1.56    0.67    1.00
  YS02001920YS02001918 CONDUIT   1681.47     0  01:34      2.14    1.63    1.00
  YS02001923YS02001920 CONDUIT   1678.97     0  01:34      2.14    0.75    1.00
  YS02001926YS02001923 CONDUIT   1678.95     0  01:34      2.14    2.40    1.00
  YS02001929YS02001926 CONDUIT   1678.48     0  01:34      2.14    0.80    1.00
  YS02006553YS02006556 CONDUIT   2160.45     0  01:32      2.75    1.85    1.00
  YS02006556YS02006558 CONDUIT   2160.49     0  01:31      2.75    1.71    1.00
  YS02006558YS02006561 CONDUIT   1321.53     0  01:34      4.67    2.92    1.00
  YS02006561YS02001783 CONDUIT   1321.65     0  01:33      2.63    0.68    1.00
  YS02163301YS02001633 CONDUIT   1138.85     0  01:33      1.45    1.07    1.00
  YS02163601YS02164001 CONDUIT   1394.34     0  01:13      1.78    1.24    1.00
  YS02164001YS02001641 CONDUIT   1390.78     0  01:13      1.77    1.90    1.00
  YSB1154YSB6556       CONDUIT    725.69     0  01:33      1.89    1.30    1.00
  YSB1171HS02004479    CONDUIT    518.56     0  01:14      1.03    0.35    1.00
  YSB1174YSB1171       CONDUIT    750.69     0  01:48      1.95    1.15    1.00
  YSB6556YSB1171       CONDUIT    639.84     0  01:57      1.66    0.66    1.00
  CC-R1                PUMP       683.00     0  00:00              1.00
  CC-R2                PUMP       683.00     0  00:00              1.00
  CC-S1                PUMP       200.00     0  00:00              1.00
  CC-S2                PUMP       200.00     0  00:00              1.00
  JK-R1                PUMP      1000.00     0  00:00              1.00
  JK-R2                PUMP      1000.00     0  00:00              1.00
  JK-S                 PUMP       300.00     0  00:00              1.00
  
  
  ***************************
  Flow Classification Summary
  ***************************
  
  -------------------------------------------------------------------------------------
                      Adjusted    ---------- Fraction of Time in Flow Class ---------- 
                       /Actual         Up    Down  Sub   Sup   Up    Down  Norm  Inlet 
  Conduit               Length    Dry  Dry   Dry   Crit  Crit  Crit  Crit  Ltd   Ctrl  
  -------------------------------------------------------------------------------------
  HS02004478WS02006287    1.00   0.27  0.00  0.00  0.54  0.19  0.00  0.00  0.07  0.00
  HS02004479HS02004480    1.00   0.07  0.00  0.00  0.93  0.00  0.00  0.00  0.18  0.00
  HS02004480HS02004478    1.00   0.25  0.00  0.00  0.51  0.00  0.00  0.24  0.00  0.00
  HS02004770HS02004777    1.00   0.00  0.25  0.00  0.75  0.00  0.00  0.00  0.01  0.00
  HS02004777HS02004785    1.00   0.00  0.00  0.00  1.00  0.00  0.00  0.00  0.18  0.00
  HS02004785HS02004788    1.00   0.00  0.00  0.00  1.00  0.00  0.00  0.00  0.00  0.00
  HS02004788HS02004792    1.00   0.00  0.00  0.00  0.98  0.02  0.00  0.00  0.46  0.00
  HS02004792HS02004799    1.00   0.00  0.00  0.00  0.98  0.02  0.00  0.00  0.44  0.00
  HS02004799HS02004480    1.00   0.01  0.07  0.00  0.73  0.00  0.20  0.00  0.00  0.00
  HS02004802HS02004478    1.00   0.25  0.01  0.00  0.74  0.00  0.00  0.00  0.01  0.00
  HS02004807HS02004802    1.00   0.25  0.00  0.00  0.73  0.00  0.00  0.02  0.00  0.00
  HS02004817HS02004807    1.00   0.00  0.25  0.00  0.75  0.00  0.00  0.00  0.02  0.00
  HS02004817HS02004824    1.00   0.00  0.00  0.00  1.00  0.00  0.00  0.00  0.43  0.00
  HS02004824HS02004830    1.00   0.00  0.00  0.00  1.00  0.00  0.00  0.00  0.00  0.00
  HS02004830HS02004837    1.00   0.00  0.00  0.00  1.00  0.00  0.00  0.00  0.44  0.00
  HS02004837HS02004842    1.00   0.00  0.00  0.00  0.99  0.01  0.00  0.00  0.21  0.00
  HS02004842HS02004848    1.00   0.00  0.25  0.00  0.75  0.00  0.00  0.00  0.01  0.00
  HS02004848HS02004852    1.00   0.25  0.00  0.00  0.75  0.00  0.00  0.00  0.20  0.00
  HS02004852HS02004856    1.00   0.25  0.01  0.00  0.74  0.00  0.00  0.00  0.16  0.00
  HS02004856HS02004862    1.00   0.00  0.27  0.00  0.73  0.00  0.00  0.00  0.21  0.00
  HS02004862HS02004870    1.00   0.00  0.00  0.00  1.00  0.00  0.00  0.00  0.02  0.00
  HS02004870HS02004876    1.00   0.01  0.00  0.00  0.97  0.02  0.00  0.00  0.38  0.00
  HS02004876HS02004881    1.00   0.04  0.00  0.00  0.82  0.14  0.00  0.00  0.00  0.00
  HS02004881HS02006253    1.00   0.07  0.04  0.00  0.70  0.02  0.00  0.17  0.22  0.00
  HS02004901HS02004770    1.00   0.25  0.00  0.00  0.75  0.00  0.00  0.00  0.01  0.00
  WS02004401WS02004402    1.00   0.05  0.00  0.00  0.95  0.00  0.00  0.00  0.00  0.00
  WS02006109WS02006110    1.00   0.00  0.02  0.00  0.96  0.00  0.02  0.00  0.00  0.00
  WS02006110WS02006113    1.00   0.02  0.02  0.00  0.96  0.00  0.00  0.00  0.00  0.00
  WS02006111WS02006112    1.00   0.04  0.00  0.00  0.95  0.00  0.00  0.00  0.36  0.00
  WS02006112WS02006115    1.00   0.04  0.01  0.00  0.95  0.00  0.01  0.00  0.00  0.00
  WS02006113WS02006111    1.00   0.04  0.00  0.00  0.52  0.45  0.00  0.00  0.07  0.00
  WS02006115WS02006116    1.00   0.05  0.00  0.00  0.77  0.00  0.00  0.18  0.00  0.00
  WS02006116WS02004401    1.00   0.05  0.00  0.00  0.95  0.00  0.00  0.00  0.00  0.00
  WS02006228WS02006109    1.00   0.00  0.00  0.00  1.00  0.00  0.00  0.00  0.01  0.00
  WS02006229WS02006228    1.00   0.00  0.00  0.00  0.98  0.00  0.00  0.02  0.00  0.00
  WS02006230WS02006229    1.00   0.00  0.00  0.00  0.97  0.00  0.00  0.03  0.00  0.00
  WS02006231WS02006230    1.00   0.00  0.00  0.00  0.72  0.00  0.27  0.00  0.00  0.00
  WS02006232WS02006231    1.00   0.00  0.00  0.00  0.99  0.00  0.01  0.00  0.00  0.00
  WS02006234WS02006232    1.00   0.00  0.00  0.00  1.00  0.00  0.00  0.00  0.03  0.00
  WS02006235WS02006234    1.00   0.00  0.00  0.00  0.93  0.00  0.07  0.00  0.00  0.00
  WS02006238WS02006235    1.00   0.00  0.00  0.00  1.00  0.00  0.00  0.00  0.00  0.00
  WS02006239WS02006238    1.00   0.00  0.00  0.00  1.00  0.00  0.00  0.00  0.13  0.00
  WS02006240WS02006239    1.00   0.00  0.00  0.00  0.83  0.00  0.00  0.17  0.01  0.00
  WS02006242WS02006240    1.00   0.01  0.00  0.00  0.98  0.00  0.01  0.00  0.00  0.00
  WS02006243WS02006242    1.00   0.01  0.00  0.00  0.98  0.00  0.00  0.02  0.21  0.00
  WS02006245WS02006243    1.00   0.00  0.00  0.00  0.90  0.00  0.00  0.10  0.00  0.00
  WS02006247WS02006245    1.00   0.00  0.00  0.00  0.98  0.00  0.00  0.02  0.00  0.00
  WS02006248WS02006247    1.00   0.00  0.00  0.00  0.98  0.00  0.00  0.02  0.15  0.00
  WS02006249WS02006248    1.00   0.00  0.00  0.00  0.78  0.00  0.22  0.00  0.00  0.00
  WS02006251WS02006249    1.00   0.00  0.00  0.00  1.00  0.00  0.00  0.00  0.21  0.00
  WS02006252WS02006251    1.00   0.00  0.26  0.00  0.71  0.00  0.03  0.00  0.00  0.00
  WS02006253WS02006251    1.00   0.00  0.00  0.00  0.92  0.00  0.08  0.00  0.00  0.00
  WS02006256WS02006235    1.00   0.00  0.00  0.00  1.00  0.00  0.00  0.00  0.00  0.00
  WS02006280WS02006229    1.00   0.27  0.00  0.00  0.52  0.07  0.00  0.14  0.02  0.00
  WS02006284WS02006280    1.00   0.27  0.00  0.00  0.51  0.00  0.00  0.22  0.00  0.00
  WS02006287WS02006284    1.00   0.21  0.06  0.00  0.50  0.21  0.00  0.02  0.20  0.00
  YS02001580YS02001583    1.00   0.29  0.00  0.00  0.71  0.00  0.00  0.00  0.17  0.00
  YS02001583YS02001586    1.00   0.25  0.04  0.00  0.71  0.00  0.00  0.00  0.17  0.00
  YS02001586YS02001590    1.00   0.25  0.00  0.00  0.73  0.01  0.00  0.01  0.17  0.00
  YS02001590YS02001593    1.00   0.25  0.00  0.00  0.55  0.00  0.19  0.00  0.00  0.00
  YS02001593YS02001596    1.00   0.26  0.00  0.00  0.58  0.01  0.00  0.16  0.03  0.00
  YS02001596YS02001600    1.00   0.26  0.00  0.00  0.64  0.01  0.00  0.09  0.04  0.00
  YS02001600YS02001601    1.00   0.25  0.01  0.00  0.74  0.00  0.00  0.00  0.03  0.00
  YS02001601YS02001602    1.00   0.25  0.00  0.00  0.75  0.00  0.00  0.00  0.00  0.00
  YS02001602YS02001605    1.00   0.25  0.00  0.00  0.74  0.00  0.00  0.00  0.00  0.00
  YS02001605YS02001607    1.00   0.26  0.00  0.00  0.74  0.00  0.00  0.00  0.00  0.00
  YS02001607YS02001610    1.00   0.26  0.00  0.00  0.74  0.00  0.00  0.00  0.00  0.00
  YS02001610YS02001613    1.00   0.25  0.00  0.00  0.75  0.00  0.00  0.00  0.00  0.00
  YS02001613YS02001616    1.00   0.25  0.00  0.00  0.75  0.00  0.00  0.00  0.00  0.00
  YS02001616YS02001619    1.00   0.25  0.00  0.00  0.75  0.00  0.00  0.00  0.00  0.00
  YS02001619YS02001622    1.00   0.25  0.00  0.00  0.74  0.01  0.00  0.00  0.00  0.00
  YS02001622YS02001625    1.00   0.25  0.00  0.00  0.74  0.01  0.00  0.00  0.01  0.00
  YS02001625YS02001629    1.00   0.25  0.03  0.00  0.64  0.00  0.08  0.00  0.00  0.00
  YS02001629YS02163301    1.00   0.26  0.01  0.00  0.73  0.00  0.00  0.00  0.00  0.00
  YS02001633YS02163601    1.00   0.00  0.01  0.00  0.99  0.00  0.00  0.00  0.25  0.00
  YS02001641YS02001644    1.00   0.00  0.01  0.00  0.99  0.00  0.00  0.00  0.00  0.00
  YS02001644YS02001647    1.00   0.00  0.27  0.00  0.73  0.00  0.00  0.00  0.00  0.00
  YS02001647YS02001649    1.00   0.00  0.27  0.00  0.72  0.01  0.00  0.00  0.05  0.00
  YS02001649YS02001757    1.00   0.00  0.00  0.00  1.00  0.00  0.00  0.00  0.27  0.00
  YS02001652YS02001649    1.00   0.00  0.00  0.00  0.98  0.02  0.00  0.00  0.24  0.00
  YS02001655YS02001652    1.00   0.00  0.00  0.00  0.69  0.00  0.00  0.31  0.03  0.00
  YS02001658YS02001655    1.00   0.00  0.26  0.00  0.66  0.08  0.00  0.00  0.09  0.00
  YS02001661YS02001658    1.00   0.26  0.00  0.00  0.61  0.14  0.00  0.00  0.15  0.00
  YS02001664YS02001661    1.00   0.25  0.00  0.00  0.70  0.05  0.00  0.00  0.28  0.00
  YS02001745YS02001748    1.00   0.00  0.00  0.00  0.60  0.00  0.00  0.39  0.06  0.00
  YS02001748YS02001751    1.00   0.00  0.00  0.00  0.93  0.07  0.00  0.00  0.31  0.00
  YS02001751YS02001754    1.00   0.00  0.00  0.00  0.69  0.00  0.00  0.31  0.03  0.00
  YS02001754YS02001757    1.00   0.00  0.00  0.00  0.99  0.01  0.00  0.00  0.29  0.00
  YS02001757CaochengTiaoxuchi    1.00   0.00  0.00  0.00  0.96  0.04  0.00  0.00  0.27  0.00
  YS02001759YS02001757    1.00   0.00  0.00  0.00  0.98  0.02  0.00  0.00  0.13  0.00
  YS02001762YS02001759    1.00   0.00  0.00  0.00  1.00  0.00  0.00  0.00  0.02  0.00
  YS02001765YS02001762    1.00   0.00  0.00  0.00  1.00  0.00  0.00  0.00  0.23  0.00
  YS02001767YS02001765    1.00   0.00  0.00  0.00  1.00  0.00  0.00  0.00  0.00  0.00
  YS02001770YS02001767    1.00   0.00  0.00  0.00  1.00  0.00  0.00  0.00  0.00  0.00
  YS02001774YS02001770    1.00   0.00  0.25  0.00  0.74  0.00  0.00  0.00  0.00  0.00
  YS02001779YS02001774    1.00   0.00  0.00  0.00  1.00  0.00  0.00  0.00  0.27  0.00
  YS02001783YS02001784    1.00   0.00  0.28  0.00  0.72  0.00  0.00  0.00  0.03  0.00
  YS02001784YS02001785    1.00   0.00  0.00  0.00  1.00  0.00  0.00  0.00  0.25  0.00
  YS02001786YS02001788    1.00   0.00  0.00  0.00  0.77  0.23  0.00  0.00  0.00  0.00
  YS02001788YS02001790    1.00   0.00  0.00  0.00  0.52  0.48  0.00  0.00  0.44  0.00
  YS02001790YS02001791    1.00   0.00  0.00  0.00  0.03  0.97  0.00  0.00  0.18  0.00
  YS02001791YS02001793    1.00   0.00  0.00  0.00  0.00  1.00  0.00  0.00  0.05  0.00
  YS02001793JiankangQianchi    1.00   0.00  0.00  0.00  0.61  0.39  0.00  0.00  0.89  0.00
  YS02001882YS02001884    1.00   0.26  0.00  0.00  0.74  0.00  0.00  0.00  0.00  0.00
  YS02001884YS02001887    1.00   0.12  0.11  0.00  0.77  0.00  0.00  0.00  0.00  0.00
  YS02001887YS02001890    1.00   0.00  0.00  0.00  0.94  0.00  0.06  0.00  0.00  0.00
  YS02001890YS02001895    1.00   0.01  0.26  0.00  0.73  0.00  0.00  0.00  0.00  0.00
  YS02001895YS02001898    1.00   0.27  0.00  0.00  0.72  0.00  0.01  0.00  0.00  0.00
  YS02001898YS02001901    1.00   0.27  0.00  0.00  0.73  0.00  0.00  0.00  0.00  0.00
  YS02001901YS02001904    1.00   0.27  0.00  0.00  0.73  0.00  0.00  0.00  0.00  0.00
  YS02001904YS02001907    1.00   0.01  0.26  0.00  0.73  0.00  0.00  0.00  0.00  0.00
  YS02001907YS02006553    1.00   0.01  0.04  0.00  0.95  0.00  0.00  0.00  0.01  0.00
  YS02001910YS02001907    1.00   0.00  0.00  0.00  0.94  0.01  0.00  0.05  0.21  0.00
  YS02001915YS02001910    1.00   0.00  0.00  0.00  0.96  0.04  0.00  0.00  0.21  0.00
  YS02001918YS02001915    1.00   0.00  0.01  0.00  0.96  0.03  0.00  0.00  0.23  0.00
  YS02001920YS02001918    1.00   0.00  0.01  0.00  0.99  0.00  0.00  0.00  0.00  0.00
  YS02001923YS02001920    1.00   0.00  0.00  0.00  1.00  0.00  0.00  0.00  0.51  0.00
  YS02001926YS02001923    1.00   0.00  0.15  0.00  0.47  0.00  0.38  0.00  0.00  0.00
  YS02001929YS02001926    1.00   0.00  0.25  0.00  0.75  0.00  0.00  0.00  0.28  0.00
  YS02006553YS02006556    1.00   0.03  0.00  0.00  0.97  0.00  0.00  0.00  0.06  0.00
  YS02006556YS02006558    1.00   0.00  0.01  0.00  0.99  0.00  0.00  0.00  0.00  0.00
  YS02006558YS02006561    1.00   0.27  0.00  0.00  0.47  0.26  0.00  0.00  0.20  0.00
  YS02006561YS02001783    1.00   0.27  0.00  0.00  0.50  0.22  0.00  0.00  0.19  0.00
  YS02163301YS02001633    1.00   0.00  0.26  0.00  0.74  0.00  0.00  0.00  0.00  0.00
  YS02163601YS02164001    1.00   0.00  0.16  0.00  0.84  0.00  0.00  0.00  0.00  0.00
  YS02164001YS02001641    1.00   0.02  0.15  0.00  0.84  0.00  0.00  0.00  0.10  0.00
  YSB1154YSB6556          1.00   0.25  0.00  0.00  0.75  0.00  0.00  0.00  0.01  0.00
  YSB1171HS02004479       1.00   0.08  0.00  0.00  0.89  0.00  0.00  0.03  0.16  0.00
  YSB1174YSB1171          1.00   0.10  0.09  0.00  0.81  0.00  0.00  0.00  0.00  0.00
  YSB6556YSB1171          1.00   0.08  0.17  0.00  0.75  0.00  0.00  0.00  0.00  0.00
  
  
  *************************
  Conduit Surcharge Summary
  *************************
  
  ----------------------------------------------------------------------------
                                                           Hours        Hours 
                         --------- Hours Full --------   Above Full   Capacity
  Conduit                Both Ends  Upstream  Dnstream   Normal Flow   Limited
  ----------------------------------------------------------------------------
  HS02004478WS02006287        1.89      1.89      1.97      0.01         0.01
  HS02004479HS02004480        2.01      2.01      2.02      0.01         0.01
  HS02004480HS02004478        1.95      2.00      1.95      2.40         1.95
  HS02004770HS02004777        1.95      1.96      1.96      0.07         0.04
  HS02004777HS02004785        1.92      1.92      1.96      0.01         0.01
  HS02004785HS02004788        1.91      1.92      1.91      1.99         0.86
  HS02004788HS02004792        1.91      1.91      1.98      0.01         0.01
  HS02004792HS02004799        1.98      1.98      2.04      0.01         0.02
  HS02004799HS02004480        2.00      2.00      2.04      2.07         0.01
  HS02004802HS02004478        1.95      1.95      2.01      1.45         0.01
  HS02004807HS02004802        1.98      1.98      2.00      1.78         1.78
  HS02004817HS02004807        1.98      1.98      2.21      0.01         0.01
  HS02004817HS02004824        1.91      1.91      2.21      0.01         0.01
  HS02004824HS02004830        1.89      1.89      1.91      0.42         0.43
  HS02004830HS02004837        1.86      1.86      1.89      0.30         0.30
  HS02004837HS02004842        1.86      1.86      1.94      0.01         0.01
  HS02004842HS02004848        1.84      1.84      1.94      0.01         0.01
  HS02004848HS02004852        1.84      1.84      1.86      0.03         0.05
  HS02004852HS02004856        1.86      1.86      1.87      0.60         0.57
  HS02004856HS02004862        1.84      1.84      1.86      0.01         0.01
  HS02004862HS02004870        1.86      1.86      1.88      0.74         0.69
  HS02004870HS02004876        1.88      1.88      1.92      0.01         0.01
  HS02004876HS02004881        1.91      1.92      1.91      2.34         1.91
  HS02004881HS02006253        1.91      1.91      2.81      0.01         0.01
  HS02004901HS02004770        1.95      1.95      1.96      0.83         0.01
  WS02004401WS02004402        0.01      0.64      0.01      2.32         0.01
  WS02006109WS02006110        2.85      2.85      2.86      2.86         0.01
  WS02006110WS02006113        2.04      2.04      2.86      1.57         0.01
  WS02006111WS02006112        1.95      1.95      2.84      0.01         0.01
  WS02006112WS02006115        1.80      1.80      2.35      0.98         0.01
  WS02006113WS02006111        1.96      2.04      1.96      2.30         1.95
  WS02006115WS02006116        1.07      1.83      1.07      2.35         1.07
  WS02006116WS02004401        0.64      1.57      0.64      2.36         0.64
  WS02006228WS02006109        2.86      2.86      2.86      2.97         2.86
  WS02006229WS02006228        2.86      2.86      2.86      2.90         2.86
  WS02006230WS02006229        2.86      2.86      2.86      3.18         0.78
  WS02006231WS02006230        2.70      2.71      2.84      3.08         2.06
  WS02006232WS02006231        2.84      2.84      2.84      0.04         0.32
  WS02006234WS02006232        2.83      2.83      2.84      0.03         0.01
  WS02006235WS02006234        2.82      2.83      2.83      3.00         2.04
  WS02006238WS02006235        2.82      2.83      2.83      0.02         0.73
  WS02006239WS02006238        2.82      2.82      2.83      2.60         0.50
  WS02006240WS02006239        2.82      2.82      2.82      2.60         0.50
  WS02006242WS02006240        2.82      2.82      2.82      2.64         2.03
  WS02006243WS02006242        2.81      2.81      2.82      0.01         0.01
  WS02006245WS02006243        2.81      2.81      2.81      0.59         0.49
  WS02006247WS02006245        2.81      2.81      2.81      2.89         0.71
  WS02006248WS02006247        2.81      2.81      2.81      0.01         0.01
  WS02006249WS02006248        2.81      2.81      2.81      0.80         0.01
  WS02006251WS02006249        2.81      2.82      2.81      2.94         2.81
  WS02006252WS02006251        2.94      2.94      2.94      2.33         1.24
  WS02006253WS02006251        2.82      2.82      2.83      2.07         0.01
  WS02006256WS02006235        3.05      3.06      3.49      0.33         0.01
  WS02006280WS02006229        2.01      2.01      2.04      0.01         0.01
  WS02006284WS02006280        1.97      1.97      2.00      0.01         0.01
  WS02006287WS02006284        1.94      1.94      1.98      1.81         1.81
  YS02001580YS02001583        2.02      2.02      2.04      0.01         0.01
  YS02001583YS02001586        2.02      2.02      2.10      0.01         0.01
  YS02001586YS02001590        2.10      2.10      2.15      0.01         0.01
  YS02001590YS02001593        2.15      2.15      2.16      2.19         0.01
  YS02001593YS02001596        2.16      2.16      2.22      0.01         0.01
  YS02001596YS02001600        2.24      2.24      2.31      0.01         0.01
  YS02001600YS02001601        2.35      2.35      2.51      0.01         0.01
  YS02001601YS02001602        2.46      2.46      2.53      2.26         0.01
  YS02001602YS02001605        2.44      2.44      2.46      2.94         0.01
  YS02001605YS02001607        2.42      2.44      2.44      2.38         2.33
  YS02001607YS02001610        2.16      2.16      2.18      0.01         0.01
  YS02001610YS02001613        2.17      2.17      2.18      0.01         0.01
  YS02001613YS02001616        2.14      2.14      2.17      0.01         0.01
  YS02001616YS02001619        2.12      2.12      2.14      1.22         1.08
  YS02001619YS02001622        2.12      2.12      2.13      2.07         1.98
  YS02001622YS02001625        2.13      2.13      2.27      0.01         0.01
  YS02001625YS02001629        2.10      2.10      2.27      0.01         0.01
  YS02001629YS02163301        2.29      2.29      2.31      0.88         0.03
  YS02001633YS02163601        2.33      2.33      2.37      0.06         0.07
  YS02001641YS02001644        2.33      2.34      2.33      2.57         2.23
  YS02001644YS02001647        2.18      2.18      2.33      0.03         0.01
  YS02001647YS02001649        2.18      2.18      2.31      0.01         0.01
  YS02001649YS02001757        2.31      2.31      2.39      0.08         0.04
  YS02001652YS02001649        2.18      2.18      2.31      0.59         0.59
  YS02001655YS02001652        2.01      2.01      2.14      0.58         0.59
  YS02001658YS02001655        1.81      1.81      2.01      0.52         0.52
  YS02001661YS02001658        1.21      1.21      1.81      0.49         0.48
  YS02001664YS02001661        0.79      0.79      1.53      0.01         0.01
  YS02001745YS02001748        0.83      0.83      1.77      0.28         0.28
  YS02001748YS02001751        1.82      1.82      1.97      0.37         0.37
  YS02001751YS02001754        1.97      1.97      2.11      0.35         0.35
  YS02001754YS02001757        2.14      2.14      2.39      0.01         0.01
  YS02001757CaochengTiaoxuchi        2.31      2.39      2.70      0.82         0.71
  YS02001759YS02001757        2.31      2.31      2.39      0.34         0.28
  YS02001762YS02001759        2.29      2.29      2.31      0.01         0.02
  YS02001765YS02001762        2.25      2.25      2.29      0.01         0.01
  YS02001767YS02001765        2.22      2.22      2.25      0.01         0.02
  YS02001770YS02001767        2.22      2.22      2.22      1.69         0.80
  YS02001774YS02001770        2.20      2.20      2.27      0.01         0.01
  YS02001779YS02001774        2.09      2.09      2.27      0.01         0.01
  YS02001783YS02001784        1.91      1.92      1.91      1.99         1.91
  YS02001784YS02001785        1.84      1.91      1.84      2.07         1.84
  YS02001786YS02001788        0.01      1.84      0.01      2.04         0.01
  YS02001790YS02001791        0.01      0.01      0.01      1.90         0.01
  YS02001793JiankangQianchi        0.01      0.01      3.71      0.01         0.01
  YS02001882YS02001884        1.89      1.89      1.90      0.01         0.01
  YS02001884YS02001887        1.91      1.91      1.92      0.01         0.01
  YS02001887YS02001890        1.93      1.93      1.94      1.30         0.01
  YS02001890YS02001895        1.88      1.88      1.94      0.01         0.01
  YS02001895YS02001898        1.88      1.88      1.88      0.01         0.01
  YS02001898YS02001901        1.89      1.89      1.91      0.01         0.01
  YS02001901YS02001904        1.90      1.90      1.91      0.01         0.01
  YS02001904YS02001907        1.90      1.90      2.03      0.01         0.01
  YS02001907YS02006553        2.07      2.07      2.09      0.68         0.69
  YS02001910YS02001907        1.94      1.94      2.02      1.01         1.01
  YS02001915YS02001910        1.89      1.89      1.94      0.01         0.05
  YS02001918YS02001915        1.84      1.84      1.89      0.01         0.01
  YS02001920YS02001918        1.84      1.84      1.84      0.68         0.01
  YS02001923YS02001920        1.80      1.80      1.84      0.01         0.01
  YS02001926YS02001923        1.32      1.32      1.39      0.92         0.01
  YS02001929YS02001926        1.06      1.06      1.39      0.01         0.01
  YS02006553YS02006556        1.98      1.98      2.03      0.60         0.60
  YS02006556YS02006558        2.01      2.01      2.04      0.58         0.01
  YS02006558YS02006561        1.86      1.97      1.86      2.06         1.86
  YS02006561YS02001783        1.81      1.81      1.92      0.01         0.01
  YS02163301YS02001633        2.31      2.31      2.35      0.72         0.01
  YS02163601YS02164001        2.32      2.32      2.37      0.04         0.01
  YS02164001YS02001641        2.32      2.32      2.34      1.08         1.09
  YSB1154YSB6556              2.03      2.03      2.07      0.94         0.01
  YSB1171HS02004479           1.98      1.98      2.07      0.01         0.01
  YSB1174YSB1171              2.06      2.06      2.15      0.68         0.68
  YSB6556YSB1171              2.03      2.03      2.21      0.01         0.01
  
  
  ***************
  Pumping Summary
  ***************
  
  ---------------------------------------------------------------------------------------------------------
                                                  Min       Avg       Max     Total     Power    % Time Off
                        Percent   Number of      Flow      Flow      Flow    Volume     Usage    Pump Curve
  Pump                 Utilized   Start-Ups       LPS       LPS       LPS  10^6 ltr     Kw-hr    Low   High
  ---------------------------------------------------------------------------------------------------------
  CC-R1                   69.44           2      0.00    683.00    683.00     6.829    138.01    0.0   61.9
  CC-R2                   67.68           2      0.00    683.00    683.00     6.657    134.81    0.0   63.5
  CC-S1                   71.97           2      0.00    200.00    200.00     2.073     11.78    0.0   55.0
  CC-S2                   70.74           2      0.00    200.00    200.00     2.037     11.46    0.0   56.0
  JK-R1                   45.06           5      0.00   1000.00   1000.00     6.489     62.06    0.0    0.0
  JK-R2                    0.33           1      0.00   1000.00   1000.00     0.047      0.36    0.0    0.0
  JK-S                    57.05           2      0.00    300.00    300.00     2.465     39.64    0.0    0.0
  

  Analysis begun on:  Tue Jun  9 17:05:09 2026
  Analysis ended on:  Tue Jun  9 17:05:09 2026
  Total elapsed time: < 1 sec