
  EPA STORM WATER MANAGEMENT MODEL - VERSION 5.2 (Build 5.2.4)
  PYSWMM TOOLKIT API - VERSION v1.0 (2026-02-26)
  ------------------------------------------------------------

  WARNING 03: negative offset ignored for Link YS02001904YS02001907
  
  ****************
  Analysis Options
  ****************
  Flow Units ............... LPS
  Process Models:
    Rainfall/Runoff ........ YES
    RDII ................... NO
    Snowmelt ............... NO
    Groundwater ............ NO
    Flow Routing ........... YES
    Ponding Allowed ........ NO
    Water Quality .......... NO
  Infiltration Method ...... HORTON
  Flow Routing Method ...... DYNWAVE
  Surcharge Method ......... EXTRAN
  Starting Date ............ 08/28/2015 08:00:00
  Ending Date .............. 08/28/2015 12:00:00
  Antecedent Dry Days ...... 8.0
  Report Time Step ......... 00:01:00
  Wet Time Step ............ 00:01:00
  Dry Time Step ............ 00:01:00
  Routing Time Step ........ 30.00 sec
  Variable Time Step ....... YES
  Maximum Trials ........... 8
  Number of Threads ........ 4
  Head Tolerance ........... 0.001500 m
  
  
  **************************        Volume         Depth
  Runoff Quantity Continuity     hectare-m            mm
  **************************     ---------       -------
  Total Precipitation ......        47.414       782.694
  Evaporation Loss .........         0.000         0.000
  Infiltration Loss ........         0.194         3.198
  Surface Runoff ...........        47.039       776.510
  Final Storage ............         0.198         3.268
  Continuity Error (%) .....        -0.036
  
  
  **************************        Volume        Volume
  Flow Routing Continuity        hectare-m      10^6 ltr
  **************************     ---------     ---------
  Dry Weather Inflow .......         0.026         0.261
  Wet Weather Inflow .......        47.037       470.373
  Groundwater Inflow .......         0.000         0.000
  RDII Inflow ..............         0.000         0.000
  External Inflow ..........         0.015         0.148
  External Outflow .........         3.672        36.717
  Flooding Loss ............        43.200       432.000
  Evaporation Loss .........         0.000         0.000
  Exfiltration Loss ........         0.000         0.000
  Initial Stored Volume ....         0.243         2.431
  Final Stored Volume ......         0.449         4.487
  Continuity Error (%) .....         0.002
  
  
  *************************
  Highest Continuity Errors
  *************************
  Node YS02001583 (-14.74%)
  Node YS02001884 (8.69%)
  
  
  ***************************
  Time-Step Critical Elements
  ***************************
  Link YS02001791YS02001793 (50.38%)
  Link WS02006280WS02006229 (22.03%)
  Link WS02006238WS02006235 (12.24%)
  Link WS02006115WS02006116 (2.46%)
  Link YS02006556YS02006558 (1.43%)
  
  
  ********************************
  Highest Flow Instability Indexes
  ********************************
  Link WS02006238WS02006235 (48)
  Link YS02001605YS02001607 (45)
  Link YS02001602YS02001605 (45)
  Link WS02006229WS02006228 (44)
  Link WS02006280WS02006229 (43)
  
  
  *********************************
  Most Frequent Nonconverging Nodes
  *********************************
  Node CC-1 (17.51%)
  Node CC-2 (17.51%)
  Node JK-1 (17.51%)
  Node JK-2 (17.51%)
  Node WS02004402 (17.51%)
  
  
  *************************
  Routing Time Step Summary
  *************************
  Minimum Time Step           :     0.00 sec
  Average Time Step           :     2.12 sec
  Maximum Time Step           :     9.92 sec
  % of Time in Steady State   :     0.00
  Average Iterations per Step :     4.55
  % of Steps Not Converging   :    17.51
  Time Step Frequencies       :
     30.000 - 13.228 sec      :     0.00 %
     13.228 -  5.833 sec      :     3.68 %
      5.833 -  2.572 sec      :     5.01 %
      2.572 -  1.134 sec      :    83.89 %
      1.134 -  0.500 sec      :     7.42 %
  
  
  ***************************
  Subcatchment Runoff Summary
  ***************************
  
  ------------------------------------------------------------------------------------------------------------------------------
                            Total      Total      Total      Total     Imperv       Perv      Total       Total     Peak  Runoff
                           Precip      Runon       Evap      Infil     Runoff     Runoff     Runoff      Runoff   Runoff   Coeff
  Subcatchment                 mm         mm         mm         mm         mm         mm         mm    10^6 ltr      LPS
  ------------------------------------------------------------------------------------------------------------------------------
  sub0                     782.69       0.00       0.00       1.01     726.85      53.74     780.59        0.63   510.97   0.997
  sub1                     782.69       0.00       0.00       1.58     695.08      84.24     779.32        5.18  3919.51   0.996
  sub10                    782.69       0.00       0.00       1.15     718.59      61.32     779.91        8.60  6533.52   0.996
  sub11                    782.69       0.00       0.00       1.15     718.77      61.35     780.12        9.07  7019.19   0.997
  sub12                    782.69       0.00       0.00       1.87     679.90      99.69     779.59        6.81  5423.02   0.996
  sub14                    782.69       0.00       0.00       1.29     710.88      68.99     779.87        7.42  5688.62   0.996
  sub15                    782.69       0.00       0.00       4.31     546.80     228.81     775.60       13.34  9852.06   0.991
  sub16                    782.69       0.00       0.00       4.74     523.57     252.22     775.79        8.12  6163.26   0.991
  sub17                    782.69       0.00       0.00       4.60     531.36     244.54     775.89        6.66  5031.22   0.991
  sub2                     782.69       0.00       0.00       5.31     491.83     279.94     771.77        7.19  4974.03   0.986
  sub22                    782.69       0.00       0.00       6.18     445.34     327.15     772.49       48.80 34992.19   0.987
  sub23                    782.69       0.00       0.00       5.31     492.24     282.17     774.41       36.94 27199.95   0.989
  sub3                     782.69       0.00       0.00       5.31     491.45     277.88     769.33       17.32 11463.88   0.983
  sub4                     782.69       0.00       0.00       1.58     693.54      83.96     777.50       16.22 11418.72   0.993
  sub5                     782.69       0.00       0.00       1.01     726.32      53.66     779.98        8.84  6689.73   0.997
  sub60                    782.69       0.00       0.00       1.72     687.56      91.97     779.53       10.24  7953.60   0.996
  sub61                    782.69       0.00       0.00       2.44     648.53     130.20     778.73       14.29 11094.55   0.995
  sub62                    782.69       0.00       0.00       1.15     718.53      61.31     779.84       21.37 16188.73   0.996
  sub63                    782.69       0.00       0.00       4.17     554.74     221.58     776.33       17.62 13256.17   0.992
  sub64                    782.69       0.00       0.00       2.15     663.69     114.69     778.38       18.70 13968.68   0.994
  sub65                    782.69       0.00       0.00       1.87     679.13      99.40     778.53       21.43 15900.33   0.995
  sub66                    782.69       0.00       0.00       4.17     553.74     219.16     772.90       36.04 24651.61   0.987
  sub67                    782.69       0.00       0.00       1.15     718.94      61.39     780.33       14.51 11526.54   0.997
  sub68                    782.69       0.00       0.00       2.01     671.82     107.20     779.02       21.44 16353.41   0.995
  sub69                    782.69       0.00       0.00       2.15     664.61     115.18     779.79       28.87 21288.13   0.996
  sub7                     782.69       0.00       0.00       1.29     711.02      69.02     780.05        2.63  2053.16   0.997
  sub70                    782.69       0.00       0.00       4.88     515.34     255.89     771.23       22.28 14480.58   0.985
  sub71                    782.69       0.00       0.00       1.15     718.14      61.26     779.40       20.38 15163.47   0.996
  sub72                    782.69       0.00       0.00       1.01     725.38      53.58     778.96       10.71  7775.26   0.995
  sub8                     782.69       0.00       0.00       1.29     710.92      69.00     779.92        4.98  3839.81   0.996
  sub9                     782.69       0.00       0.00       1.29     710.90      68.99     779.89        3.75  2881.52   0.996
  
  
  ******************
  Node Depth Summary
  ******************
  
  ---------------------------------------------------------------------------------
                                 Average  Maximum  Maximum  Time of Max    Reported
                                   Depth    Depth      HGL   Occurrence   Max Depth
  Node                 Type       Meters   Meters   Meters  days hr:min      Meters
  ---------------------------------------------------------------------------------
  HS02004478           JUNCTION     0.97     1.71    10.94     0  02:45        1.62
  HS02004479           JUNCTION     1.06     1.85    11.05     0  01:09        1.85
  HS02004480           JUNCTION     1.03     1.81    11.05     0  01:09        1.81
  HS02004770           JUNCTION     0.92     1.42    11.25     0  01:08        1.42
  HS02004777           JUNCTION     0.95     1.48    11.28     0  01:08        1.48
  HS02004785           JUNCTION     0.85     1.49    11.39     0  01:08        1.49
  HS02004788           JUNCTION     0.84     1.42    11.32     0  01:08        1.42
  HS02004792           JUNCTION     1.00     1.60    11.12     0  01:07        1.60
  HS02004799           JUNCTION     1.14     1.76    10.97     0  01:09        1.76
  HS02004802           JUNCTION     1.13     1.89    11.02     0  02:45        1.80
  HS02004807           JUNCTION     1.18     1.92    11.09     0  01:09        1.92
  HS02004817           JUNCTION     1.56     2.44    11.29     0  01:09        2.44
  HS02004824           JUNCTION     1.15     2.01    11.41     0  01:26        2.01
  HS02004830           JUNCTION     1.14     2.03    11.50     0  02:00        2.03
  HS02004837           JUNCTION     1.09     2.04    11.62     0  02:00        2.04
  HS02004842           JUNCTION     1.36     2.22    11.49     0  01:11        2.22
  HS02004848           JUNCTION     1.10     2.07    11.67     0  02:00        2.07
  HS02004852           JUNCTION     1.12     2.12    11.63     0  01:11        2.12
  HS02004856           JUNCTION     1.16     2.07    11.50     0  01:11        2.07
  HS02004862           JUNCTION     1.12     2.00    11.38     0  01:11        2.00
  HS02004870           JUNCTION     1.14     2.10    11.39     0  01:56        2.10
  HS02004876           JUNCTION     1.24     2.26    11.29     0  01:56        2.26
  HS02004881           JUNCTION     1.09     2.15    11.18     0  02:00        2.15
  HS02004901           JUNCTION     0.91     1.42    11.28     0  01:07        1.42
  WS02004401           JUNCTION     0.75     1.19     7.19     0  02:12        1.19
  WS02006109           JUNCTION     1.95     2.64     9.26     0  01:09        2.64
  WS02006110           JUNCTION     1.68     2.76     9.34     0  01:07        2.76
  WS02006111           JUNCTION     0.92     2.43     9.14     0  01:12        2.43
  WS02006112           JUNCTION     1.45     2.68     8.56     0  02:00        2.68
  WS02006113           JUNCTION     1.09     2.73     9.62     0  01:12        2.73
  WS02006115           JUNCTION     0.98     1.90     8.04     0  02:00        1.90
  WS02006116           JUNCTION     0.91     1.60     7.64     0  02:12        1.60
  WS02006228           JUNCTION     2.21     3.03     9.68     0  01:09        3.03
  WS02006229           JUNCTION     2.35     3.25     9.94     0  01:09        3.25
  WS02006230           JUNCTION     2.02     2.65     9.39     0  01:08        2.65
  WS02006231           JUNCTION     1.63     2.24     9.36     0  01:08        2.24
  WS02006232           JUNCTION     1.67     2.18     9.22     0  01:07        2.18
  WS02006234           JUNCTION     1.51     1.96     9.12     0  01:08        1.96
  WS02006235           JUNCTION     1.49     2.00     9.16     0  01:08        1.95
  WS02006238           JUNCTION     1.50     2.15     9.29     0  01:08        1.96
  WS02006239           JUNCTION     1.40     2.03     9.24     0  01:09        2.03
  WS02006240           JUNCTION     1.29     2.10     9.39     0  01:09        2.10
  WS02006242           JUNCTION     1.27     1.55     8.82     0  01:09        1.55
  WS02006243           JUNCTION     1.12     1.48     8.90     0  01:09        1.48
  WS02006245           JUNCTION     1.05     1.56     9.04     0  01:09        1.37
  WS02006247           JUNCTION     1.04     1.47     8.97     0  02:45        1.47
  WS02006248           JUNCTION     0.95     1.10     8.69     0  01:09        1.10
  WS02006249           JUNCTION     0.95     1.09     8.69     0  01:09        1.09
  WS02006251           JUNCTION     1.61     2.21     9.88     0  01:59        2.21
  WS02006252           JUNCTION     1.09     1.50     9.74     0  00:00        1.50
  WS02006253           JUNCTION     2.19     3.46    11.10     0  02:24        3.46
  WS02006256           JUNCTION     1.90     2.35     9.28     0  00:00        2.35
  WS02006280           JUNCTION     1.10     1.83    10.10     0  01:12        1.83
  WS02006284           JUNCTION     1.31     2.08    10.48     0  02:00        2.08
  WS02006287           JUNCTION     1.10     1.87    10.83     0  02:45        1.81
  YS02001580           JUNCTION     0.49     1.05     9.59     0  01:09        0.78
  YS02001583           JUNCTION     0.53     1.14     9.64     0  01:09        0.82
  YS02001586           JUNCTION     0.78     1.13     9.30     0  01:08        1.13
  YS02001590           JUNCTION     0.97     1.40     9.26     0  01:07        1.40
  YS02001593           JUNCTION     0.88     1.38     9.24     0  01:07        1.33
  YS02001596           JUNCTION     1.15     1.80     9.22     0  01:07        1.73
  YS02001600           JUNCTION     1.33     1.87     9.00     0  01:07        1.87
  YS02001601           JUNCTION     1.53     2.06     8.90     0  01:07        2.06
  YS02001602           JUNCTION     1.38     1.87     8.77     0  01:10        1.87
  YS02001605           JUNCTION     1.30     1.78     8.68     0  01:10        1.78
  YS02001607           JUNCTION     1.20     1.68     8.53     0  01:10        1.67
  YS02001610           JUNCTION     1.23     1.68     8.48     0  01:10        1.68
  YS02001613           JUNCTION     1.21     1.70     8.54     0  01:10        1.70
  YS02001616           JUNCTION     1.15     1.61     8.52     0  01:10        1.61
  YS02001619           JUNCTION     1.14     1.61     8.54     0  01:10        1.61
  YS02001622           JUNCTION     1.12     1.62     8.52     0  01:12        1.62
  YS02001625           JUNCTION     1.33     1.78     8.38     0  01:10        1.78
  YS02001629           JUNCTION     1.36     1.85     8.40     0  01:10        1.85
  YS02001633           JUNCTION     1.48     2.08     8.53     0  01:53        2.08
  YS02001641           JUNCTION     1.42     2.10     8.54     0  02:00        2.10
  YS02001644           JUNCTION     1.40     1.92     8.35     0  01:13        1.92
  YS02001647           JUNCTION     1.23     1.83     8.44     0  02:45        1.79
  YS02001649           JUNCTION     1.42     2.05     8.44     0  01:49        2.05
  YS02001652           JUNCTION     1.32     2.16     8.76     0  02:00        2.15
  YS02001655           JUNCTION     1.19     2.20     9.05     0  02:00        2.20
  YS02001658           JUNCTION     1.06     2.30     9.44     0  02:00        2.30
  YS02001661           JUNCTION     0.97     2.43     9.84     0  02:05        2.43
  YS02001664           JUNCTION     0.69     2.31    10.23     0  02:00        2.31
  YS02001745           JUNCTION     0.73     2.35     9.87     0  02:00        2.35
  YS02001748           JUNCTION     0.98     2.27     9.35     0  02:00        2.27
  YS02001751           JUNCTION     1.09     2.20     9.08     0  02:00        2.20
  YS02001754           JUNCTION     1.27     2.20     8.81     0  02:00        2.20
  YS02001757           JUNCTION     1.51     2.21     8.47     0  01:59        2.21
  YS02001759           JUNCTION     1.47     2.21     8.57     0  02:00        2.21
  YS02001762           JUNCTION     1.43     2.15     8.55     0  02:00        2.15
  YS02001765           JUNCTION     1.39     2.10     8.55     0  02:40        2.08
  YS02001767           JUNCTION     1.35     2.03     8.52     0  02:45        2.01
  YS02001770           JUNCTION     1.35     1.95     8.44     0  01:12        1.95
  YS02001774           JUNCTION     1.40     2.05     8.47     0  01:12        2.03
  YS02001779           JUNCTION     1.15     1.68     8.37     0  01:12        1.68
  YS02001783           JUNCTION     0.83     2.40     8.54     0  02:45        2.40
  YS02001784           JUNCTION     0.77     1.58     7.65     0  02:00        1.58
  YS02001786           JUNCTION     0.60     0.99     7.02     0  02:06        0.98
  YS02001788           JUNCTION     0.43     0.69     6.67     0  02:06        0.68
  YS02001790           JUNCTION     0.48     0.78     6.43     0  02:06        0.73
  YS02001791           JUNCTION     0.29     0.48     5.95     0  02:06        0.46
  YS02001793           JUNCTION     0.15     0.31     5.14     0  02:47        0.28
  YS02001882           JUNCTION     1.06     1.83     8.55     0  01:10        1.83
  YS02001884           JUNCTION     1.15     1.93     8.55     0  01:10        1.93
  YS02001887           JUNCTION     1.23     2.00     8.54     0  02:00        2.00
  YS02001890           JUNCTION     1.20     1.81     8.32     0  01:10        1.81
  YS02001895           JUNCTION     0.97     1.75     8.50     0  01:10        1.57
  YS02001898           JUNCTION     0.97     1.77     8.51     0  01:10        1.77
  YS02001901           JUNCTION     1.08     1.85     8.46     0  01:10        1.70
  YS02001904           JUNCTION     1.05     1.85     8.48     0  01:12        1.85
  YS02001907           JUNCTION     1.35     1.96     8.25     0  01:11        1.96
  YS02001910           JUNCTION     1.27     2.10     8.61     0  01:12        2.10
  YS02001915           JUNCTION     1.18     2.00     8.72     0  01:12        2.00
  YS02001918           JUNCTION     0.96     1.81     8.88     0  01:12        1.81
  YS02001920           JUNCTION     1.07     2.14     9.15     0  01:12        2.14
  YS02001923           JUNCTION     0.91     2.03     9.29     0  01:12        1.91
  YS02001926           JUNCTION     0.87     1.90     9.35     0  01:12        1.87
  YS02001929           JUNCTION     0.73     1.78     9.47     0  02:00        1.78
  YS02006553           JUNCTION     1.38     2.19     8.47     0  02:00        2.19
  YS02006556           JUNCTION     1.40     2.33     8.64     0  02:05        2.33
  YS02006558           JUNCTION     1.46     2.50     8.77     0  02:00        2.50
  YS02006561           JUNCTION     0.61     1.20     7.86     0  02:32        1.20
  YS02163301           JUNCTION     1.40     1.98     8.50     0  02:40        1.96
  YS02163601           JUNCTION     1.49     2.08     8.48     0  02:00        2.08
  YS02164001           JUNCTION     1.41     2.10     8.56     0  01:12        2.10
  YSB1154              JUNCTION     1.31     2.10    11.16     0  01:09        2.10
  YSB1171              JUNCTION     1.33     1.95    10.85     0  01:09        1.95
  YSB1174              JUNCTION     1.21     1.95    11.06     0  01:09        1.95
  YSB6556              JUNCTION     1.14     1.80    10.97     0  01:09        1.80
  CC-1                 OUTFALL      0.00     0.00     0.00     0  00:00        0.00
  CC-2                 OUTFALL      0.00     0.00     0.00     0  00:00        0.00
  JK-1                 OUTFALL      0.00     0.00     0.00     0  00:00        0.00
  JK-2                 OUTFALL      0.00     0.00     0.00     0  00:00        0.00
  WS02004402           OUTFALL      0.61     0.88     6.84     0  02:21        0.88
  CC-storage           STORAGE      1.71     2.30     7.80     0  02:15        2.30
  JK-storage           STORAGE      2.09     4.24     5.04     0  02:47        4.17
  
  
  *******************
  Node Inflow Summary
  *******************
  
  -------------------------------------------------------------------------------------------------
                                  Maximum  Maximum                  Lateral       Total        Flow
                                  Lateral    Total  Time of Max      Inflow      Inflow     Balance
                                   Inflow   Inflow   Occurrence      Volume      Volume       Error
  Node                 Type           LPS      LPS  days hr:min    10^6 ltr    10^6 ltr     Percent
  -------------------------------------------------------------------------------------------------
  HS02004478           JUNCTION      0.00  2553.80     0  01:08           0        18.6       0.003
  HS02004479           JUNCTION      0.00   505.55     0  01:11           0         1.8       0.129
  HS02004480           JUNCTION      0.00  2374.29     0  01:08           0        11.3       0.029
  HS02004770           JUNCTION  27199.95 28095.63     0  02:25        36.9        41.3       0.014
  HS02004777           JUNCTION      0.03   866.67     0  01:08    0.000432        2.64       0.327
  HS02004785           JUNCTION      0.15   874.15     0  01:08     0.00216        2.63       0.138
  HS02004788           JUNCTION   9853.73  9853.73     0  02:25        13.4        14.6       0.006
  HS02004792           JUNCTION  34992.47 36082.17     0  02:25        48.8        56.1       0.005
  HS02004799           JUNCTION   5688.62  6830.71     0  02:24        7.42        17.2       0.057
  HS02004802           JUNCTION      0.00  1310.32     0  02:45           0        8.76       0.069
  HS02004807           JUNCTION   7019.19  8215.73     0  02:24        9.06        17.2       0.048
  HS02004817           JUNCTION      0.60  1208.86     0  02:00     0.00864         8.2       0.246
  HS02004824           JUNCTION  11418.77 12291.00     0  02:25        16.2        20.6       0.013
  HS02004830           JUNCTION      0.15  1048.39     0  02:31     0.00216        4.69       0.057
  HS02004837           JUNCTION   6539.87  6539.87     0  02:25        8.69        9.17       0.029
  HS02004842           JUNCTION      0.00  2354.69     0  02:25           0        7.85       0.186
  HS02004848           JUNCTION  11463.88 11463.88     0  02:25        17.3        17.6       0.011
  HS02004852           JUNCTION      0.00  1092.96     0  01:10           0        5.36       0.037
  HS02004856           JUNCTION   2881.52  3762.26     0  02:24        3.75        9.11       0.026
  HS02004862           JUNCTION   4974.23  6139.25     0  02:25         7.2          14       0.016
  HS02004870           JUNCTION   3839.81  3839.81     0  02:24        4.98        9.66       0.020
  HS02004876           JUNCTION   3919.51  4845.49     0  02:25        5.18        13.3       0.031
  HS02004881           JUNCTION   2053.16  3043.72     0  02:24        2.63        12.8       0.014
  HS02004901           JUNCTION   6163.26  6163.26     0  02:24        8.12        8.12       0.030
  WS02004401           JUNCTION      0.00  2426.78     0  02:31           0        16.3       0.089
  WS02006109           JUNCTION      1.23  1362.10     0  01:09      0.0177        12.3       0.176
  WS02006110           JUNCTION      0.00  1369.45     0  01:09           0        11.4       0.198
  WS02006111           JUNCTION      0.00  1382.37     0  01:09           0        11.3       0.056
  WS02006112           JUNCTION   5031.22  5868.68     0  02:24        6.66          18       0.228
  WS02006113           JUNCTION      0.00  1375.64     0  01:09           0        11.3       0.133
  WS02006115           JUNCTION      0.00  2426.78     0  02:23           0        16.3       0.119
  WS02006116           JUNCTION      0.00  2426.78     0  02:31           0        16.3       0.056
  WS02006228           JUNCTION      0.00  1367.56     0  01:09           0        12.3       0.110
  WS02006229           JUNCTION      0.00  2334.75     0  02:45           0        19.7       0.078
  WS02006230           JUNCTION     10.28  1030.09     0  02:00       0.148         8.6       0.256
  WS02006231           JUNCTION      0.00   792.64     0  01:08           0        4.59       0.285
  WS02006232           JUNCTION      0.00   792.14     0  01:08           0        4.58       0.374
  WS02006234           JUNCTION      0.00   791.77     0  01:08           0        4.56       0.329
  WS02006235           JUNCTION      0.00   786.84     0  01:09           0        4.31       0.181
  WS02006238           JUNCTION      0.00   786.97     0  01:09           0        4.18       0.145
  WS02006239           JUNCTION      0.00   787.80     0  01:09           0        4.16       0.275
  WS02006240           JUNCTION      0.00   983.06     0  01:09           0        4.15       0.295
  WS02006242           JUNCTION      0.00   926.03     0  01:09           0        4.15       0.363
  WS02006243           JUNCTION      0.00   549.46     0  01:09           0         3.1       0.498
  WS02006245           JUNCTION      0.00   500.97     0  01:09           0        3.12       0.601
  WS02006247           JUNCTION      0.00   498.97     0  01:09           0        3.13       0.358
  WS02006248           JUNCTION      0.00   538.44     0  01:09           0        3.65       0.329
  WS02006249           JUNCTION      0.00  1411.09     0  02:07           0        11.9       0.172
  WS02006251           JUNCTION      0.08  1941.61     0  02:24     0.00111        14.3       0.126
  WS02006252           JUNCTION      0.00   820.21     0  02:06           0        6.38       0.007
  WS02006253           JUNCTION    510.97  1941.55     0  02:24       0.632        12.8       0.124
  WS02006256           JUNCTION      0.00   300.00     0  00:00           0         2.5      -0.045
  WS02006280           JUNCTION      0.00  2331.55     0  02:45           0        18.6      -0.010
  WS02006284           JUNCTION      0.10  2437.41     0  01:08     0.00138        18.6       0.003
  WS02006287           JUNCTION      0.00  2476.10     0  01:08           0        18.6       0.073
  YS02001580           JUNCTION      0.00   204.75     0  01:09           0     0.00482      -3.015
  YS02001583           JUNCTION      0.00   275.43     0  01:09           0      0.0148     -12.846
  YS02001586           JUNCTION  14480.58 14480.58     0  02:25        22.3        22.3       0.016
  YS02001590           JUNCTION      0.00   323.33     0  02:45           0        2.82       0.099
  YS02001593           JUNCTION      0.00   322.77     0  02:45           0        2.82       0.055
  YS02001596           JUNCTION      0.00   318.15     0  02:47           0        2.82       0.031
  YS02001600           JUNCTION      0.00   318.37     0  02:45           0        2.82       0.060
  YS02001601           JUNCTION  21288.13 21605.64     0  02:25        28.9        31.7       0.018
  YS02001602           JUNCTION      0.00   615.72     0  01:09           0        3.71       0.151
  YS02001605           JUNCTION      0.00   608.38     0  01:09           0        3.24       0.245
  YS02001607           JUNCTION      0.00   608.11     0  01:08           0        3.23       0.273
  YS02001610           JUNCTION      0.00   959.79     0  02:45           0        6.92       0.137
  YS02001613           JUNCTION      0.00   623.46     0  02:45           0        4.54       0.181
  YS02001616           JUNCTION      0.00   669.11     0  02:45           0        4.54       0.127
  YS02001619           JUNCTION  24651.61 24651.61     0  02:25          36        36.9       0.013
  YS02001622           JUNCTION      0.00  1053.94     0  01:44           0        8.67       0.069
  YS02001625           JUNCTION      0.00  1505.47     0  02:49           0        11.4       0.223
  YS02001629           JUNCTION      0.00  1138.94     0  02:03           0        7.07       0.043
  YS02001633           JUNCTION  15900.53 15900.53     0  02:25        21.4        23.1       0.062
  YS02001641           JUNCTION      0.00  1379.43     0  01:11           0        7.02       0.141
  YS02001644           JUNCTION  13968.72 15720.37     0  02:25        18.7        29.2       0.039
  YS02001647           JUNCTION      0.00  1854.95     0  01:11           0        6.86       0.074
  YS02001649           JUNCTION      0.00  3236.41     0  02:32           0        15.7       0.058
  YS02001652           JUNCTION      0.00  2429.15     0  02:04           0        10.7      -0.022
  YS02001655           JUNCTION      0.15  2731.44     0  02:21     0.00222        11.3       0.026
  YS02001658           JUNCTION      0.00  2783.08     0  02:32           0        11.3      -0.000
  YS02001661           JUNCTION      0.00  2783.08     0  02:32           0        11.3       0.007
  YS02001664           JUNCTION  13256.17 13256.17     0  02:25        17.6        17.6      -0.001
  YS02001745           JUNCTION   7953.61  7953.61     0  02:24        10.2        10.2       0.018
  YS02001748           JUNCTION      0.04  3122.13     0  02:22    0.000648        8.45      -0.028
  YS02001751           JUNCTION      0.01  2353.32     0  02:21    0.000158        7.67       0.022
  YS02001754           JUNCTION      0.26  2353.58     0  02:21     0.00374        7.67      -0.015
  YS02001757           JUNCTION      0.00  3760.87     0  02:29           0        22.6       0.194
  YS02001759           JUNCTION  11094.59 11094.59     0  02:24        14.3          16       0.040
  YS02001762           JUNCTION      0.00   805.69     0  01:17           0        3.73       0.141
  YS02001765           JUNCTION      0.00   805.93     0  01:17           0        3.74       0.141
  YS02001767           JUNCTION      0.54   806.48     0  01:17      0.0077        3.74       0.163
  YS02001770           JUNCTION  16188.88 16911.06     0  02:25        21.4        23.4       0.018
  YS02001774           JUNCTION      0.00   964.28     0  02:45           0        4.77       0.117
  YS02001779           JUNCTION      0.01   851.78     0  02:48     7.2e-05        4.72      -0.010
  YS02001783           JUNCTION      0.00  1321.56     0  02:32           0        9.34       0.012
  YS02001784           JUNCTION      1.06  1322.53     0  02:07      0.0153        9.35       0.023
  YS02001786           JUNCTION      0.06  1322.53     0  02:07    0.000811        9.35       0.018
  YS02001788           JUNCTION      0.07  1322.59     0  02:07     0.00102        9.35       0.011
  YS02001790           JUNCTION      0.15  1344.79     0  02:06     0.00223        9.35       0.040
  YS02001791           JUNCTION      0.00  1409.29     0  02:06           0        9.34      -0.031
  YS02001793           JUNCTION      0.00  1441.81     0  02:06           0        9.35       0.007
  YS02001882           JUNCTION      0.00   138.60     0  01:09           0      0.0134      12.994
  YS02001884           JUNCTION      0.00   233.05     0  01:09           0      0.0492       9.519
  YS02001887           JUNCTION  11526.99 11526.99     0  02:24        14.5        14.6       0.042
  YS02001890           JUNCTION      0.00  2052.03     0  02:23           0        8.86       0.077
  YS02001895           JUNCTION      0.00   604.10     0  02:45           0        3.66       0.135
  YS02001898           JUNCTION      0.00   549.10     0  02:45           0        3.66       0.011
  YS02001901           JUNCTION      0.00   550.02     0  01:10           0        3.66       0.145
  YS02001904           JUNCTION      0.00   554.43     0  01:10           0        3.68       0.118
  YS02001907           JUNCTION      0.00  4668.53     0  02:08           0        22.1       0.095
  YS02001910           JUNCTION      0.00  1993.25     0  02:47           0        12.4       0.077
  YS02001915           JUNCTION  15163.49 16385.18     0  02:25        20.4        26.4       0.011
  YS02001918           JUNCTION      0.00  1681.01     0  02:36           0        7.05       0.017
  YS02001920           JUNCTION      2.87  1681.02     0  02:36      0.0413        7.02       0.016
  YS02001923           JUNCTION      0.04  1678.16     0  02:36    0.000543        6.96       0.003
  YS02001926           JUNCTION      0.05  1678.10     0  02:36    0.000752        6.94       0.000
  YS02001929           JUNCTION   7775.26  7775.26     0  02:25        10.7        10.7      -0.001
  YS02006553           JUNCTION      0.00  2159.67     0  02:32           0        7.43       0.186
  YS02006556           JUNCTION      0.00  2159.67     0  02:32           0        7.45       0.132
  YS02006558           JUNCTION  16354.29 16354.29     0  02:24        21.5        22.9       0.019
  YS02006561           JUNCTION      0.00  1321.54     0  02:07           0        9.34       0.004
  YS02163301           JUNCTION      0.00  1138.87     0  02:39           0        7.07       0.131
  YS02163601           JUNCTION      0.11  1380.46     0  01:11     0.00158        7.02       0.222
  YS02164001           JUNCTION      0.00  1380.05     0  01:11           0        7.01       0.133
  YSB1154              JUNCTION   6689.73  6689.73     0  02:25        8.84        8.84       0.027
  YSB1171              JUNCTION      0.00  1631.31     0  02:00           0        8.94       0.099
  YSB1174              JUNCTION   5423.02  5423.02     0  02:24        6.81        6.81       0.032
  YSB6556              JUNCTION      0.00   725.69     0  02:00           0         4.1       0.069
  CC-1                 OUTFALL       0.00   683.00     0  00:00           0         6.9       0.000
  CC-2                 OUTFALL       0.00   683.00     0  00:00           0        6.71       0.000
  JK-1                 OUTFALL       0.00  1000.00     0  00:00           0        6.77       0.000
  JK-2                 OUTFALL       0.00  1000.00     0  00:00           0      0.0483       0.000
  WS02004402           OUTFALL       0.00  2426.78     0  02:21           0        16.3       0.000
  CC-storage           STORAGE       0.00  3423.57     0  01:16           0          22       0.029
  JK-storage           STORAGE       0.00  1445.15     0  02:06           0         9.5       0.046
  
  
  **********************
  Node Surcharge Summary
  **********************
  
  Surcharging occurs when water rises above the top of the highest conduit.
  ---------------------------------------------------------------------
                                               Max. Height   Min. Depth
                                   Hours       Above Crown    Below Rim
  Node                 Type      Surcharged         Meters       Meters
  ---------------------------------------------------------------------
  HS02004478           JUNCTION        1.98          0.790        0.150
  HS02004479           JUNCTION        2.07          1.050        0.000
  HS02004480           JUNCTION        2.10          1.100        0.000
  HS02004770           JUNCTION        2.05          0.720        0.000
  HS02004777           JUNCTION        2.05          0.780        0.000
  HS02004785           JUNCTION        2.01          0.790        0.000
  HS02004788           JUNCTION        2.00          0.720        0.000
  HS02004792           JUNCTION        2.08          0.900        0.000
  HS02004799           JUNCTION        2.13          1.060        0.000
  HS02004802           JUNCTION        2.09          1.177        0.033
  HS02004807           JUNCTION        2.08          1.220        0.000
  HS02004817           JUNCTION        2.31          1.740        0.000
  HS02004824           JUNCTION        2.01          1.310        0.000
  HS02004830           JUNCTION        1.98          1.330        0.000
  HS02004837           JUNCTION        1.95          1.340        0.000
  HS02004842           JUNCTION        2.04          1.520        0.000
  HS02004848           JUNCTION        1.93          1.370        0.000
  HS02004852           JUNCTION        1.95          1.420        0.000
  HS02004856           JUNCTION        1.93          1.300        0.000
  HS02004862           JUNCTION        1.96          1.300        0.000
  HS02004870           JUNCTION        1.97          1.400        0.000
  HS02004876           JUNCTION        2.02          1.560        0.000
  HS02004881           JUNCTION        2.00          1.450        0.000
  HS02004901           JUNCTION        2.04          0.720        0.000
  WS02004401           JUNCTION        0.74          0.192        1.468
  WS02006109           JUNCTION        2.88          1.820        0.000
  WS02006110           JUNCTION        2.88          1.850        0.000
  WS02006111           JUNCTION        2.04          1.622        0.248
  WS02006112           JUNCTION        2.40          1.680        0.000
  WS02006113           JUNCTION        2.13          1.930        0.000
  WS02006115           JUNCTION        1.87          0.891        1.359
  WS02006116           JUNCTION        1.32          0.540        1.750
  WS02006228           JUNCTION        2.88          2.200        0.000
  WS02006229           JUNCTION        2.14          1.070        0.000
  WS02006230           JUNCTION        2.81          1.570        0.000
  WS02006231           JUNCTION        2.87          1.530        0.000
  WS02006232           JUNCTION        2.87          1.480        0.000
  WS02006234           JUNCTION        2.86          1.240        0.000
  WS02006235           JUNCTION        2.86          1.290        0.000
  WS02006238           JUNCTION        2.85          1.430        0.000
  WS02006239           JUNCTION        2.85          1.290        0.000
  WS02006240           JUNCTION        2.85          1.390        0.000
  WS02006242           JUNCTION        2.84          0.820        0.000
  WS02006243           JUNCTION        2.84          0.770        0.000
  WS02006245           JUNCTION        2.84          0.850        0.000
  WS02006247           JUNCTION        2.84          0.760        0.000
  WS02006248           JUNCTION        2.84          0.380        0.000
  WS02006249           JUNCTION        2.84          0.390        0.000
  WS02006251           JUNCTION        2.84          1.180        0.000
  WS02006252           JUNCTION        2.97          1.100        0.000
  WS02006253           JUNCTION        2.84          2.417        0.063
  WS02006256           JUNCTION        3.52          2.050        0.000
  WS02006280           JUNCTION        2.10          0.780        0.000
  WS02006284           JUNCTION        2.07          0.800        0.000
  WS02006287           JUNCTION        2.03          0.871        0.019
  YS02001580           JUNCTION        2.16          0.450        0.000
  YS02001583           JUNCTION        2.16          0.500        0.000
  YS02001586           JUNCTION        2.22          0.510        0.000
  YS02001590           JUNCTION        2.28          0.750        0.000
  YS02001593           JUNCTION        2.28          0.756        0.084
  YS02001596           JUNCTION        2.34          1.070        0.000
  YS02001600           JUNCTION        2.43          1.190        0.000
  YS02001601           JUNCTION        2.62          1.440        0.000
  YS02001602           JUNCTION        2.57          1.270        0.000
  YS02001605           JUNCTION        2.55          1.180        0.000
  YS02001607           JUNCTION        2.28          0.680        0.000
  YS02001610           JUNCTION        2.30          0.680        0.000
  YS02001613           JUNCTION        2.28          0.700        0.000
  YS02001616           JUNCTION        2.24          0.610        0.000
  YS02001619           JUNCTION        2.24          0.610        0.000
  YS02001622           JUNCTION        2.24          0.620        0.000
  YS02001625           JUNCTION        2.38          0.780        0.000
  YS02001629           JUNCTION        2.19          0.470        0.000
  YS02001633           JUNCTION        2.43          1.060        0.000
  YS02001641           JUNCTION        2.43          1.100        0.000
  YS02001644           JUNCTION        2.42          0.920        0.000
  YS02001647           JUNCTION        2.28          0.831        0.069
  YS02001649           JUNCTION        2.41          1.050        0.000
  YS02001652           JUNCTION        2.24          1.130        0.000
  YS02001655           JUNCTION        2.10          1.200        0.000
  YS02001658           JUNCTION        1.87          1.300        0.000
  YS02001661           JUNCTION        1.46          1.365        0.025
  YS02001664           JUNCTION        0.94          1.310        0.000
  YS02001745           JUNCTION        0.98          1.350        0.000
  YS02001748           JUNCTION        1.79          1.190        0.000
  YS02001751           JUNCTION        2.05          1.200        0.000
  YS02001754           JUNCTION        2.19          1.150        0.000
  YS02001757           JUNCTION        2.49          1.210        0.000
  YS02001759           JUNCTION        2.41          1.210        0.000
  YS02001762           JUNCTION        2.37          1.150        0.000
  YS02001765           JUNCTION        2.34          1.100        0.000
  YS02001767           JUNCTION        2.31          1.030        0.000
  YS02001770           JUNCTION        2.29          0.920        0.000
  YS02001774           JUNCTION        2.36          1.050        0.000
  YS02001779           JUNCTION        2.18          0.680        0.000
  YS02001783           JUNCTION        1.99          1.600        0.000
  YS02001784           JUNCTION        1.97          0.778        0.712
  YS02001786           JUNCTION        1.91          0.194        1.236
  YS02001882           JUNCTION        1.96          0.830        0.000
  YS02001884           JUNCTION        1.97          0.870        0.000
  YS02001887           JUNCTION        1.99          0.950        0.000
  YS02001890           JUNCTION        1.99          0.760        0.000
  YS02001895           JUNCTION        1.95          0.750        0.000
  YS02001898           JUNCTION        1.95          0.740        0.000
  YS02001901           JUNCTION        1.98          0.848        0.022
  YS02001904           JUNCTION        1.97          0.850        0.000
  YS02001907           JUNCTION        2.09          0.950        0.000
  YS02001910           JUNCTION        2.00          1.100        0.000
  YS02001915           JUNCTION        1.96          1.000        0.000
  YS02001918           JUNCTION        1.91          0.810        0.000
  YS02001920           JUNCTION        1.92          1.140        0.000
  YS02001923           JUNCTION        1.65          0.820        0.000
  YS02001926           JUNCTION        1.71          0.900        0.000
  YS02001929           JUNCTION        1.30          0.780        0.000
  YS02006553           JUNCTION        2.09          1.190        0.000
  YS02006556           JUNCTION        2.05          1.291        0.059
  YS02006558           JUNCTION        2.04          1.400        0.000
  YS02006561           JUNCTION        1.88          0.402        0.748
  YS02163301           JUNCTION        2.41          0.982        0.048
  YS02163601           JUNCTION        2.47          1.080        0.000
  YS02164001           JUNCTION        2.42          1.100        0.000
  YSB1154              JUNCTION        2.16          1.400        0.000
  YSB1171              JUNCTION        2.16          1.100        0.000
  YSB1174              JUNCTION        2.14          1.250        0.000
  YSB6556              JUNCTION        2.12          1.100        0.000
  
  
  *********************
  Node Flooding Summary
  *********************
  
  Flooding refers to all water that overflows a node, whether it ponds or not.
  --------------------------------------------------------------------------
                                                             Total   Maximum
                                 Maximum   Time of Max       Flood    Ponded
                        Hours       Rate    Occurrence      Volume     Depth
  Node                 Flooded       LPS   days hr:min    10^6 ltr    Meters
  --------------------------------------------------------------------------
  HS02004479              0.01      3.18      0  01:09       0.000     0.000
  HS02004480              0.01      6.31      0  01:09       0.000     0.000
  HS02004770              1.97  28092.08      0  02:25      40.000     0.000
  HS02004777              0.01     59.37      0  02:45       0.001     0.000
  HS02004785              0.01    157.57      0  01:08       0.001     0.000
  HS02004788              0.71   8336.21      0  02:25       5.972     0.000
  HS02004792              1.94  34931.20      0  02:25      46.371     0.000
  HS02004799              1.82   5524.97      0  02:24       6.181     0.000
  HS02004807              1.67   6982.32      0  02:24       8.389     0.000
  HS02004817              0.01     12.45      0  02:00       0.000     0.000
  HS02004824              1.55  11087.08      0  02:25      12.385     0.000
  HS02004830              0.39    176.16      0  02:26       0.217     0.000
  HS02004837              0.32   4406.57      0  02:25       1.981     0.000
  HS02004842              1.54   2354.69      0  02:25       7.178     0.000
  HS02004848              0.67   9305.07      0  02:25       7.024     0.000
  HS02004852              0.01    131.86      0  01:11       0.000     0.000
  HS02004856              0.85   2759.04      0  02:24       2.478     0.000
  HS02004862              1.47   6136.51      0  02:25       9.343     0.000
  HS02004870              0.44   2751.62      0  02:24       1.355     0.000
  HS02004876              0.70   3854.46      0  02:25       3.142     0.000
  HS02004881              0.27   1612.53      0  02:24       0.631     0.000
  HS02004901              1.25   5692.76      0  02:24       5.117     0.000
  WS02006109              1.09    449.90      0  02:32       0.894     0.000
  WS02006110              0.01    297.87      0  01:07       0.000     0.000
  WS02006112              0.33   3441.59      0  02:24       1.591     0.000
  WS02006113              0.01      1.55      0  01:12       0.000     0.000
  WS02006228              0.01     21.97      0  02:45       0.000     0.000
  WS02006229              0.01     44.19      0  02:45       0.000     0.000
  WS02006230              2.05    578.33      0  02:00       3.928     0.000
  WS02006231              0.01     88.58      0  01:08       0.000     0.000
  WS02006232              0.29    337.19      0  01:07       0.001     0.000
  WS02006234              2.10    161.63      0  01:08       0.942     0.000
  WS02006235              0.01    187.89      0  01:08       0.001     0.000
  WS02006238              0.01    223.80      0  01:08       0.000     0.000
  WS02006239              0.01    384.59      0  01:09       0.002     0.000
  WS02006240              0.01    764.38      0  01:09       0.002     0.000
  WS02006242              2.12    876.26      0  01:09       1.064     0.000
  WS02006243              0.01    483.46      0  01:09       0.009     0.000
  WS02006245              0.01    228.41      0  01:09       0.001     0.000
  WS02006247              0.01      0.12      0  02:45       0.000     0.000
  WS02006248              2.22    375.46      0  01:12       2.639     0.000
  WS02006249              2.84   1350.24      0  02:34      10.360     0.000
  WS02006251              0.53    110.22      0  02:24       0.117     0.000
  WS02006252              1.96    820.21      0  02:06       4.862     0.000
  WS02006256              2.31    294.29      0  01:12       1.688     0.000
  WS02006280              0.01      4.92      0  01:12       0.000     0.000
  WS02006284              0.01      0.48      0  02:00       0.000     0.000
  YS02001580              0.01    121.46      0  01:09       0.001     0.000
  YS02001583              0.01    184.70      0  01:09       0.000     0.000
  YS02001586              2.12  14151.50      0  02:25      19.454     0.000
  YS02001590              0.01    138.51      0  01:07       0.000     0.000
  YS02001596              0.01     19.43      0  01:07       0.000     0.000
  YS02001600              0.01     11.76      0  01:07       0.000     0.000
  YS02001601              2.16  21199.62      0  02:25      27.970     0.000
  YS02001602              2.12     64.49      0  02:00       0.464     0.000
  YS02001605              0.01     21.28      0  01:10       0.000     0.000
  YS02001607              0.01    108.46      0  01:10       0.000     0.000
  YS02001610              2.07    959.35      0  02:45       6.078     0.000
  YS02001613              0.01     63.89      0  01:10       0.000     0.000
  YS02001616              0.18     56.78      0  01:10       0.002     0.000
  YS02001619              1.47  22964.82      0  02:25      24.480     0.000
  YS02001622              0.01      0.60      0  02:45       0.000     0.000
  YS02001625              2.05   1505.25      0  02:41       9.758     0.000
  YS02001629              1.56    686.80      0  02:03       2.646     0.000
  YS02001633              0.81  13851.80      0  02:25      10.625     0.000
  YS02001641              0.01      0.87      0  02:00       0.000     0.000
  YS02001644              1.83  15716.51      0  02:25      25.841     0.000
  YS02001649              0.91   2389.70      0  02:32       5.840     0.000
  YS02001652              0.01      6.49      0  02:00       0.000     0.000
  YS02001655              0.57    302.86      0  02:32       0.588     0.000
  YS02001658              0.51     51.80      0  02:32       0.094     0.000
  YS02001664              0.51  10473.00      0  02:25       6.275     0.000
  YS02001745              0.24   4829.91      0  02:24       1.797     0.000
  YS02001748              0.34    768.81      0  02:27       0.788     0.000
  YS02001751              0.01      1.12      0  02:00       0.000     0.000
  YS02001754              0.01      0.96      0  02:00       0.000     0.000
  YS02001757              0.50    783.60      0  02:30       1.116     0.000
  YS02001759              0.53   8963.33      0  02:24       5.348     0.000
  YS02001762              0.01     61.87      0  02:45       0.000     0.000
  YS02001765              0.01     42.39      0  02:45       0.000     0.000
  YS02001767              0.01     20.10      0  02:45       0.000     0.000
  YS02001770              1.26  16058.57      0  02:25      16.964     0.000
  YS02001774              0.01    152.25      0  02:45       0.001     0.000
  YS02001779              1.77    851.60      0  02:45       4.708     0.000
  YS02001783              0.01     26.41      0  02:45       0.000     0.000
  YS02001882              0.01     23.42      0  01:10       0.000     0.000
  YS02001884              0.01     20.37      0  01:10       0.000     0.000
  YS02001887              0.56   9469.35      0  02:24       5.648     0.000
  YS02001890              1.81   1535.83      0  02:04       5.193     0.000
  YS02001895              0.01     99.49      0  01:10       0.000     0.000
  YS02001898              0.01     48.29      0  01:10       0.000     0.000
  YS02001904              0.01      0.98      0  01:12       0.000     0.000
  YS02001907              1.87   4668.53      0  02:08      20.642     0.000
  YS02001910              0.01      1.35      0  01:12       0.000     0.000
  YS02001915              1.13  14387.74      0  02:25      13.929     0.000
  YS02001918              0.70    459.30      0  02:36       0.977     0.000
  YS02001920              0.01     67.52      0  01:12       0.000     0.000
  YS02001923              0.01    230.16      0  01:12       0.001     0.000
  YS02001926              0.01    513.41      0  01:12       0.003     0.000
  YS02001929              0.51   6093.11      0  02:25       3.789     0.000
  YS02006553              0.01      0.24      0  02:00       0.000     0.000
  YS02006558              0.49  12873.96      0  02:24       7.489     0.000
  YS02163601              0.01     11.70      0  02:00       0.000     0.000
  YS02164001              0.01      7.68      0  01:12       0.000     0.000
  YSB1154                 0.91   5963.42      0  02:25       4.740     0.000
  YSB1171                 1.86   1630.86      0  02:00       8.580     0.000
  YSB1174                 0.70   4669.57      0  02:24       3.125     0.000
  YSB6556                 1.01     85.86      0  02:00       0.295     0.000
  CC-storage              0.79    410.40      0  02:15       0.879     0.000
  
  
  **********************
  Storage Volume Summary
  **********************
  
  ------------------------------------------------------------------------------------------------
                         Average    Avg   Evap  Exfil     Maximum    Max    Time of Max    Maximum
                          Volume   Pcnt   Pcnt   Pcnt      Volume   Pcnt     Occurrence    Outflow
  Storage Unit           1000 m³   Full   Loss   Loss     1000 m³   Full    days hr:min        LPS
  ------------------------------------------------------------------------------------------------
  CC-storage               4.771   74.4    0.0    0.0       6.410  100.0       0  02:15    1783.54
  JK-storage               0.105   36.0    0.0    0.0       0.213   73.1       0  02:47    2300.00
  
  
  ***********************
  Outfall Loading Summary
  ***********************
  
  -----------------------------------------------------------
                         Flow       Avg       Max       Total
                         Freq      Flow      Flow      Volume
  Outfall Node           Pcnt       LPS       LPS    10^6 ltr
  -----------------------------------------------------------
  CC-1                  82.04    683.00    683.00       6.896
  CC-2                  79.84    683.00    683.00       6.709
  JK-1                  54.97   1000.00   1000.00       6.767
  JK-2                   0.31   1000.00   1000.00       0.048
  WS02004402            95.16   1386.52   2426.78      16.296
  -----------------------------------------------------------
  System                62.46   4752.52   4792.78      36.717
  
  
  ********************
  Link Flow Summary
  ********************
  
  -----------------------------------------------------------------------------
                                 Maximum  Time of Max   Maximum    Max/    Max/
                                  |Flow|   Occurrence   |Veloc|    Full    Full
  Link                 Type          LPS  days hr:min     m/sec    Flow   Depth
  -----------------------------------------------------------------------------
  HS02004478WS02006287 CONDUIT   2476.10     0  01:08      3.01    0.69    1.00
  HS02004479HS02004480 CONDUIT    504.72     0  01:11      0.72    0.49    1.00
  HS02004480HS02004478 CONDUIT   2373.95     0  01:08      3.39   10.00    1.00
  HS02004770HS02004777 CONDUIT    866.64     0  01:08      1.24    1.58    1.00
  HS02004777HS02004785 CONDUIT    874.00     0  01:08      1.40    1.08    1.00
  HS02004785HS02004788 CONDUIT    730.64     0  01:08      1.35    5.51    1.00
  HS02004788HS02004792 CONDUIT   1089.71     0  02:12      1.56    0.72    1.00
  HS02004792HS02004799 CONDUIT   1776.93     0  01:08      2.54    1.09    1.00
  HS02004799HS02004480 CONDUIT   1965.29     0  01:08      2.81    2.48    1.00
  HS02004802HS02004478 CONDUIT   1271.11     0  02:45      1.82    1.12    1.00
  HS02004807HS02004802 CONDUIT   1310.32     0  02:45      1.87    2.50    1.00
  HS02004817HS02004807 CONDUIT   1197.05     0  02:47      1.71    0.71    1.00
  HS02004817HS02004824 CONDUIT   1208.26     0  02:00      1.73    0.54    1.00
  HS02004824HS02004830 CONDUIT    872.23     0  02:30      1.25    1.14    1.00
  HS02004830HS02004837 CONDUIT   1048.24     0  02:31      1.50    1.04    1.00
  HS02004837HS02004842 CONDUIT   1084.84     0  02:26      1.55    0.65    1.00
  HS02004842HS02004848 CONDUIT   1269.84     0  02:37      1.81    0.74    1.00
  HS02004848HS02004852 CONDUIT   1092.96     0  01:10      1.68    1.23    1.00
  HS02004852HS02004856 CONDUIT   1087.58     0  01:11      1.55    1.24    1.00
  HS02004856HS02004862 CONDUIT   1150.68     0  01:11      1.71    1.15    1.00
  HS02004862HS02004870 CONDUIT   1261.34     0  01:11      1.95    1.36    1.00
  HS02004870HS02004876 CONDUIT   1302.48     0  02:56      1.97    0.86    1.00
  HS02004876HS02004881 CONDUIT   1533.64     0  02:45      2.35   16.31    1.00
  HS02004881HS02006253 CONDUIT   1743.59     0  02:38      3.02    0.34    1.00
  HS02004901HS02004770 CONDUIT    469.86     0  02:15      0.67    1.00    1.00
  WS02004401WS02004402 CONDUIT   2426.78     0  02:21      3.17    2.91    0.94
  WS02006109WS02006110 CONDUIT   1369.45     0  01:09      2.72    2.63    1.00
  WS02006110WS02006113 CONDUIT   1375.64     0  01:09      2.74    1.25    1.00
  WS02006111WS02006112 CONDUIT   1348.88     0  01:12      2.68    0.64    1.00
  WS02006112WS02006115 CONDUIT   2426.78     0  02:23      3.09    1.43    1.00
  WS02006113WS02006111 CONDUIT   1382.37     0  01:09      2.87    1.66    1.00
  WS02006115WS02006116 CONDUIT   2426.78     0  02:31      3.09    3.11    1.00
  WS02006116WS02004401 CONDUIT   2426.78     0  02:31      3.09    3.34    1.00
  WS02006228WS02006109 CONDUIT   1360.87     0  01:09      2.71    5.95    1.00
  WS02006229WS02006228 CONDUIT   1367.56     0  01:09      2.72    4.53    1.00
  WS02006230WS02006229 CONDUIT   1019.81     0  02:00      2.65   22.70    1.00
  WS02006231WS02006230 CONDUIT    792.64     0  01:08      2.06   12.02    1.00
  WS02006232WS02006231 CONDUIT    792.14     0  01:08      2.06    1.66    1.00
  WS02006234WS02006232 CONDUIT    791.77     0  01:08      2.27    1.60    1.00
  WS02006235WS02006234 CONDUIT    786.84     0  01:09      2.13    8.30    1.00
  WS02006238WS02006235 CONDUIT    786.97     0  01:09      2.29    1.76    1.00
  WS02006239WS02006238 CONDUIT    787.80     0  01:09      2.48    2.52    1.00
  WS02006240WS02006239 CONDUIT    776.90     0  01:09      2.21    2.44    1.00
  WS02006242WS02006240 CONDUIT    559.11     0  01:09      1.45    2.22    1.00
  WS02006243WS02006242 CONDUIT    411.04     0  04:00      1.35    0.88    1.00
  WS02006245WS02006243 CONDUIT    469.56     0  01:09      1.44    1.39    1.00
  WS02006247WS02006245 CONDUIT    500.97     0  01:09      1.38    3.97    1.00
  WS02006248WS02006247 CONDUIT    498.97     0  01:09      1.38    1.09    1.00
  WS02006249WS02006248 CONDUIT    538.44     0  01:09      1.42    2.95    1.00
  WS02006251WS02006249 CONDUIT   1411.09     0  02:07      3.67    4.07    1.00
  WS02006252WS02006251 CONDUIT    420.21     0  02:06     24.89    1.54    1.00
  WS02006253WS02006251 CONDUIT   1941.53     0  02:24      5.04    5.82    1.00
  WS02006256WS02006235 CONDUIT    288.93     0  00:00      4.23    3.06    1.00
  WS02006280WS02006229 CONDUIT   2334.75     0  02:45      5.32    0.50    1.00
  WS02006284WS02006280 CONDUIT   2331.55     0  02:45      3.37    0.98    1.00
  WS02006287WS02006284 CONDUIT   2437.32     0  01:08      3.12    1.13    1.00
  YS02001580YS02001583 CONDUIT    204.75     0  01:09      0.96    0.79    1.00
  YS02001583YS02001586 CONDUIT    213.00     0  01:08      0.99    0.32    1.00
  YS02001586YS02001590 CONDUIT    323.33     0  02:45      1.34    0.57    1.00
  YS02001590YS02001593 CONDUIT    322.77     0  02:45      1.14    2.03    1.00
  YS02001593YS02001596 CONDUIT    318.15     0  02:47      1.80    0.50    1.00
  YS02001596YS02001600 CONDUIT    318.37     0  02:45      1.34    0.62    1.00
  YS02001600YS02001601 CONDUIT    318.73     0  02:45      1.13    0.55    1.00
  YS02001601YS02001602 CONDUIT    615.72     0  01:09      2.18    2.22    1.00
  YS02001602YS02001605 CONDUIT    608.38     0  01:09      2.15   12.87    1.00
  YS02001605YS02001607 CONDUIT    608.11     0  01:08      2.15    3.33    1.00
  YS02001607YS02001610 CONDUIT    615.96     0  01:09      0.95    0.59    1.00
  YS02001610YS02001613 CONDUIT    623.34     0  02:45      0.84    0.72    1.00
  YS02001613YS02001616 CONDUIT    623.46     0  02:45      0.87    0.53    1.00
  YS02001616YS02001619 CONDUIT    669.11     0  02:45      0.91    1.16    1.00
  YS02001619YS02001622 CONDUIT   1053.94     0  01:44      1.89    1.55    1.00
  YS02001622YS02001625 CONDUIT   1053.71     0  02:47      1.34    0.56    1.00
  YS02001625YS02001629 CONDUIT    863.30     0  01:11      1.11    0.41    1.00
  YS02001629YS02163301 CONDUIT   1138.94     0  02:03      1.45    1.40    1.00
  YS02001633YS02163601 CONDUIT   1380.35     0  01:11      1.76    1.45    1.00
  YS02001641YS02001644 CONDUIT   1379.11     0  01:11      1.76    4.46    1.00
  YS02001644YS02001647 CONDUIT   1854.95     0  01:11      2.36    1.09    1.00
  YS02001647YS02001649 CONDUIT   1866.48     0  01:11      2.38    0.99    1.00
  YS02001649YS02001757 CONDUIT   2179.43     0  01:12      2.77    1.32    1.00
  YS02001652YS02001649 CONDUIT   2429.11     0  02:04      3.09    1.20    1.00
  YS02001655YS02001652 CONDUIT   2429.15     0  02:04      3.09    1.18    1.00
  YS02001658YS02001655 CONDUIT   2731.29     0  02:21      3.48    1.16    1.00
  YS02001661YS02001658 CONDUIT   2783.08     0  02:32      3.54    1.09    1.00
  YS02001664YS02001661 CONDUIT   2783.08     0  02:32      3.54    0.87    1.00
  YS02001745YS02001748 CONDUIT   3122.08     0  02:22      3.98    1.20    1.00
  YS02001748YS02001751 CONDUIT   2353.31     0  02:21      3.00    1.19    1.00
  YS02001751YS02001754 CONDUIT   2353.32     0  02:21      3.00    1.13    1.00
  YS02001754YS02001757 CONDUIT   2353.58     0  02:31      3.00    0.95    1.00
  YS02001757CaochengTiaoxuchi CONDUIT   3423.57     0  01:16      4.42    1.48    1.00
  YS02001759YS02001757 CONDUIT   1442.49     0  02:04      1.84    1.03    1.00
  YS02001762YS02001759 CONDUIT    805.69     0  01:17      1.03    0.93    1.00
  YS02001765YS02001762 CONDUIT    805.69     0  01:17      1.03    0.76    1.00
  YS02001767YS02001765 CONDUIT    805.93     0  01:17      1.03    1.01    1.00
  YS02001770YS02001767 CONDUIT    805.95     0  01:17      1.03    3.19    1.00
  YS02001774YS02001770 CONDUIT    964.28     0  02:45      1.23    0.62    1.00
  YS02001779YS02001774 CONDUIT    851.78     0  02:48      1.08    0.43    1.00
  YS02001783YS02001784 CONDUIT   1321.47     0  02:07      2.63    1.82    1.00
  YS02001784YS02001785 CONDUIT   1322.47     0  02:07      2.63    3.08    1.00
  YS02001786YS02001788 CONDUIT   1322.52     0  02:07      2.74    2.55    0.93
  YS02001788YS02001790 CONDUIT   1344.64     0  02:06      2.92    0.99    0.91
  YS02001790YS02001791 CONDUIT   1409.29     0  02:06      3.54    1.53    0.76
  YS02001791YS02001793 CONDUIT   1441.81     0  02:06      7.02    0.62    0.45
  YS02001793JiankangQianchi CONDUIT   1445.15     0  02:06      2.85    0.11    0.66
  YS02001882YS02001884 CONDUIT    138.60     0  01:09      0.47    0.16    1.00
  YS02001884YS02001887 CONDUIT    233.05     0  01:09      0.42    0.31    1.00
  YS02001887YS02001890 CONDUIT   2052.03     0  02:23      2.61    3.51    1.00
  YS02001890YS02001895 CONDUIT    604.10     0  02:45      0.77    0.28    1.00
  YS02001895YS02001898 CONDUIT    549.10     0  02:45      0.77    0.95    1.00
  YS02001898YS02001901 CONDUIT    550.02     0  01:10      0.70    0.35    1.00
  YS02001901YS02001904 CONDUIT    554.43     0  01:10      0.71    0.86    1.00
  YS02001904YS02001907 CONDUIT    561.70     0  01:10      0.72    0.20    1.00
  YS02001907YS02006553 CONDUIT   2159.67     0  02:32      2.40    2.54    1.00
  YS02001910YS02001907 CONDUIT   1993.00     0  02:44      2.54    1.12    1.00
  YS02001915YS02001910 CONDUIT   1993.25     0  02:47      2.54    0.99    1.00
  YS02001918YS02001915 CONDUIT   1221.69     0  02:36      1.56    0.67    1.00
  YS02001920YS02001918 CONDUIT   1681.01     0  02:36      2.14    1.63    1.00
  YS02001923YS02001920 CONDUIT   1678.15     0  02:36      2.14    0.75    1.00
  YS02001926YS02001923 CONDUIT   1678.12     0  02:36      2.14    2.40    1.00
  YS02001929YS02001926 CONDUIT   1678.05     0  02:36      2.14    0.80    1.00
  YS02006553YS02006556 CONDUIT   2159.67     0  02:32      2.75    1.85    1.00
  YS02006556YS02006558 CONDUIT   2159.67     0  02:32      2.75    1.71    1.00
  YS02006558YS02006561 CONDUIT   1321.54     0  02:07      4.67    2.92    1.00
  YS02006561YS02001783 CONDUIT   1321.56     0  02:32      2.63    0.68    1.00
  YS02163301YS02001633 CONDUIT   1138.87     0  02:39      1.45    1.07    1.00
  YS02163601YS02164001 CONDUIT   1380.05     0  01:11      1.76    1.22    1.00
  YS02164001YS02001641 CONDUIT   1379.43     0  01:11      1.76    1.88    1.00
  YSB1154YSB6556       CONDUIT    725.69     0  02:00      1.89    1.30    1.00
  YSB1171HS02004479    CONDUIT    505.55     0  01:11      1.01    0.34    1.00
  YSB1174YSB1171       CONDUIT    750.69     0  02:06      1.95    1.15    1.00
  YSB6556YSB1171       CONDUIT    639.84     0  01:58      1.66    0.66    1.00
  CC-R1                PUMP       683.00     0  00:00              1.00
  CC-R2                PUMP       683.00     0  00:00              1.00
  CC-S1                PUMP       200.00     0  00:00              1.00
  CC-S2                PUMP       200.00     0  00:00              1.00
  JK-R1                PUMP      1000.00     0  00:00              1.00
  JK-R2                PUMP      1000.00     0  00:00              1.00
  JK-S                 PUMP       300.00     0  00:00              1.00
  
  
  ***************************
  Flow Classification Summary
  ***************************
  
  -------------------------------------------------------------------------------------
                      Adjusted    ---------- Fraction of Time in Flow Class ---------- 
                       /Actual         Up    Down  Sub   Sup   Up    Down  Norm  Inlet 
  Conduit               Length    Dry  Dry   Dry   Crit  Crit  Crit  Crit  Ltd   Ctrl  
  -------------------------------------------------------------------------------------
  HS02004478WS02006287    1.00   0.26  0.00  0.00  0.54  0.19  0.00  0.00  0.05  0.00
  HS02004479HS02004480    1.00   0.07  0.00  0.00  0.93  0.00  0.00  0.00  0.17  0.00
  HS02004480HS02004478    1.00   0.25  0.00  0.00  0.53  0.00  0.00  0.22  0.00  0.00
  HS02004770HS02004777    1.00   0.00  0.25  0.00  0.75  0.00  0.00  0.00  0.01  0.00
  HS02004777HS02004785    1.00   0.00  0.00  0.00  1.00  0.00  0.00  0.00  0.18  0.00
  HS02004785HS02004788    1.00   0.00  0.00  0.00  1.00  0.00  0.00  0.00  0.00  0.00
  HS02004788HS02004792    1.00   0.00  0.00  0.00  0.98  0.02  0.00  0.00  0.44  0.00
  HS02004792HS02004799    1.00   0.00  0.00  0.00  0.98  0.02  0.00  0.00  0.42  0.00
  HS02004799HS02004480    1.00   0.01  0.07  0.00  0.73  0.00  0.20  0.00  0.00  0.00
  HS02004802HS02004478    1.00   0.25  0.01  0.00  0.74  0.00  0.00  0.00  0.01  0.00
  HS02004807HS02004802    1.00   0.25  0.00  0.00  0.74  0.00  0.00  0.01  0.00  0.00
  HS02004817HS02004807    1.00   0.00  0.25  0.00  0.75  0.00  0.00  0.00  0.01  0.00
  HS02004817HS02004824    1.00   0.00  0.00  0.00  1.00  0.00  0.00  0.00  0.41  0.00
  HS02004824HS02004830    1.00   0.00  0.00  0.00  1.00  0.00  0.00  0.00  0.00  0.00
  HS02004830HS02004837    1.00   0.00  0.00  0.00  1.00  0.00  0.00  0.00  0.42  0.00
  HS02004837HS02004842    1.00   0.00  0.00  0.00  0.99  0.01  0.00  0.00  0.21  0.00
  HS02004842HS02004848    1.00   0.00  0.25  0.00  0.75  0.00  0.00  0.00  0.01  0.00
  HS02004848HS02004852    1.00   0.25  0.00  0.00  0.75  0.00  0.00  0.00  0.18  0.00
  HS02004852HS02004856    1.00   0.25  0.01  0.00  0.74  0.00  0.00  0.00  0.14  0.00
  HS02004856HS02004862    1.00   0.00  0.26  0.00  0.74  0.00  0.00  0.00  0.19  0.00
  HS02004862HS02004870    1.00   0.00  0.00  0.00  1.00  0.00  0.00  0.00  0.01  0.00
  HS02004870HS02004876    1.00   0.01  0.00  0.00  0.97  0.02  0.00  0.00  0.36  0.00
  HS02004876HS02004881    1.00   0.04  0.00  0.00  0.81  0.15  0.00  0.00  0.00  0.00
  HS02004881HS02006253    1.00   0.07  0.04  0.00  0.71  0.01  0.00  0.17  0.20  0.00
  HS02004901HS02004770    1.00   0.25  0.00  0.00  0.75  0.00  0.00  0.00  0.01  0.00
  WS02004401WS02004402    1.00   0.05  0.00  0.00  0.95  0.00  0.00  0.00  0.00  0.00
  WS02006109WS02006110    1.00   0.00  0.02  0.00  0.96  0.00  0.02  0.00  0.00  0.00
  WS02006110WS02006113    1.00   0.02  0.02  0.00  0.96  0.00  0.00  0.00  0.00  0.00
  WS02006111WS02006112    1.00   0.04  0.00  0.00  0.95  0.00  0.00  0.00  0.34  0.00
  WS02006112WS02006115    1.00   0.04  0.01  0.00  0.94  0.00  0.01  0.00  0.00  0.00
  WS02006113WS02006111    1.00   0.04  0.00  0.00  0.54  0.42  0.00  0.00  0.06  0.00
  WS02006115WS02006116    1.00   0.05  0.00  0.00  0.78  0.00  0.00  0.17  0.00  0.00
  WS02006116WS02004401    1.00   0.05  0.00  0.00  0.95  0.00  0.00  0.00  0.00  0.00
  WS02006228WS02006109    1.00   0.00  0.00  0.00  1.00  0.00  0.00  0.00  0.01  0.00
  WS02006229WS02006228    1.00   0.00  0.00  0.00  0.98  0.00  0.00  0.02  0.00  0.00
  WS02006230WS02006229    1.00   0.00  0.00  0.00  0.97  0.00  0.00  0.03  0.00  0.00
  WS02006231WS02006230    1.00   0.00  0.00  0.00  0.72  0.00  0.27  0.00  0.00  0.00
  WS02006232WS02006231    1.00   0.00  0.00  0.00  0.99  0.00  0.01  0.00  0.00  0.00
  WS02006234WS02006232    1.00   0.00  0.00  0.00  1.00  0.00  0.00  0.00  0.02  0.00
  WS02006235WS02006234    1.00   0.00  0.00  0.00  0.93  0.00  0.06  0.00  0.00  0.00
  WS02006238WS02006235    1.00   0.00  0.00  0.00  1.00  0.00  0.00  0.00  0.00  0.00
  WS02006239WS02006238    1.00   0.00  0.00  0.00  1.00  0.00  0.00  0.00  0.13  0.00
  WS02006240WS02006239    1.00   0.00  0.00  0.00  0.83  0.00  0.00  0.16  0.01  0.00
  WS02006242WS02006240    1.00   0.01  0.00  0.00  0.98  0.00  0.01  0.00  0.00  0.00
  WS02006243WS02006242    1.00   0.01  0.00  0.00  0.98  0.00  0.00  0.02  0.21  0.00
  WS02006245WS02006243    1.00   0.00  0.00  0.00  0.90  0.00  0.00  0.09  0.00  0.00
  WS02006247WS02006245    1.00   0.00  0.00  0.00  0.98  0.00  0.00  0.02  0.00  0.00
  WS02006248WS02006247    1.00   0.00  0.00  0.00  0.98  0.00  0.00  0.02  0.15  0.00
  WS02006249WS02006248    1.00   0.00  0.00  0.00  0.78  0.00  0.22  0.00  0.00  0.00
  WS02006251WS02006249    1.00   0.00  0.00  0.00  1.00  0.00  0.00  0.00  0.20  0.00
  WS02006252WS02006251    1.00   0.00  0.25  0.00  0.71  0.00  0.03  0.00  0.00  0.00
  WS02006253WS02006251    1.00   0.00  0.00  0.00  0.93  0.00  0.07  0.00  0.00  0.00
  WS02006256WS02006235    1.00   0.00  0.00  0.00  1.00  0.00  0.00  0.00  0.00  0.00
  WS02006280WS02006229    1.00   0.27  0.00  0.00  0.54  0.06  0.00  0.14  0.00  0.00
  WS02006284WS02006280    1.00   0.27  0.00  0.00  0.53  0.01  0.00  0.20  0.00  0.00
  WS02006287WS02006284    1.00   0.21  0.06  0.00  0.53  0.19  0.00  0.02  0.18  0.00
  YS02001580YS02001583    1.00   0.28  0.00  0.00  0.72  0.00  0.00  0.00  0.14  0.00
  YS02001583YS02001586    1.00   0.25  0.03  0.00  0.71  0.00  0.00  0.00  0.15  0.00
  YS02001586YS02001590    1.00   0.25  0.00  0.00  0.73  0.01  0.00  0.01  0.14  0.00
  YS02001590YS02001593    1.00   0.25  0.00  0.00  0.59  0.00  0.16  0.00  0.00  0.00
  YS02001593YS02001596    1.00   0.25  0.00  0.00  0.60  0.01  0.00  0.13  0.02  0.00
  YS02001596YS02001600    1.00   0.26  0.00  0.00  0.67  0.01  0.00  0.06  0.04  0.00
  YS02001600YS02001601    1.00   0.25  0.01  0.00  0.74  0.00  0.00  0.00  0.00  0.00
  YS02001601YS02001602    1.00   0.25  0.00  0.00  0.75  0.00  0.00  0.00  0.00  0.00
  YS02001602YS02001605    1.00   0.25  0.00  0.00  0.75  0.00  0.00  0.00  0.00  0.00
  YS02001605YS02001607    1.00   0.26  0.00  0.00  0.74  0.00  0.00  0.00  0.00  0.00
  YS02001607YS02001610    1.00   0.26  0.00  0.00  0.74  0.00  0.00  0.00  0.00  0.00
  YS02001610YS02001613    1.00   0.25  0.00  0.00  0.75  0.00  0.00  0.00  0.00  0.00
  YS02001613YS02001616    1.00   0.25  0.00  0.00  0.75  0.00  0.00  0.00  0.00  0.00
  YS02001616YS02001619    1.00   0.25  0.00  0.00  0.75  0.00  0.00  0.00  0.00  0.00
  YS02001619YS02001622    1.00   0.25  0.00  0.00  0.74  0.00  0.00  0.00  0.00  0.00
  YS02001622YS02001625    1.00   0.25  0.00  0.00  0.74  0.01  0.00  0.00  0.01  0.00
  YS02001625YS02001629    1.00   0.25  0.02  0.00  0.66  0.00  0.06  0.00  0.00  0.00
  YS02001629YS02163301    1.00   0.26  0.01  0.00  0.74  0.00  0.00  0.00  0.00  0.00
  YS02001633YS02163601    1.00   0.00  0.01  0.00  0.99  0.00  0.00  0.00  0.25  0.00
  YS02001641YS02001644    1.00   0.00  0.01  0.00  0.99  0.00  0.00  0.00  0.00  0.00
  YS02001644YS02001647    1.00   0.00  0.26  0.00  0.74  0.00  0.00  0.00  0.00  0.00
  YS02001647YS02001649    1.00   0.00  0.26  0.00  0.74  0.00  0.00  0.00  0.04  0.00
  YS02001649YS02001757    1.00   0.00  0.00  0.00  1.00  0.00  0.00  0.00  0.27  0.00
  YS02001652YS02001649    1.00   0.00  0.00  0.00  0.99  0.01  0.00  0.00  0.23  0.00
  YS02001655YS02001652    1.00   0.00  0.00  0.00  0.71  0.00  0.00  0.29  0.03  0.00
  YS02001658YS02001655    1.00   0.00  0.26  0.00  0.68  0.06  0.00  0.00  0.07  0.00
  YS02001661YS02001658    1.00   0.26  0.00  0.00  0.63  0.11  0.00  0.00  0.13  0.00
  YS02001664YS02001661    1.00   0.25  0.00  0.00  0.70  0.05  0.00  0.00  0.28  0.00
  YS02001745YS02001748    1.00   0.00  0.00  0.00  0.63  0.00  0.00  0.37  0.06  0.00
  YS02001748YS02001751    1.00   0.00  0.00  0.00  0.96  0.04  0.00  0.00  0.30  0.00
  YS02001751YS02001754    1.00   0.00  0.00  0.00  0.71  0.00  0.00  0.29  0.03  0.00
  YS02001754YS02001757    1.00   0.00  0.00  0.00  0.99  0.01  0.00  0.00  0.28  0.00
  YS02001757CaochengTiaoxuchi    1.00   0.00  0.00  0.00  0.97  0.03  0.00  0.00  0.27  0.00
  YS02001759YS02001757    1.00   0.00  0.00  0.00  0.98  0.02  0.00  0.00  0.13  0.00
  YS02001762YS02001759    1.00   0.00  0.00  0.00  1.00  0.00  0.00  0.00  0.02  0.00
  YS02001765YS02001762    1.00   0.00  0.00  0.00  1.00  0.00  0.00  0.00  0.22  0.00
  YS02001767YS02001765    1.00   0.00  0.00  0.00  1.00  0.00  0.00  0.00  0.00  0.00
  YS02001770YS02001767    1.00   0.00  0.00  0.00  1.00  0.00  0.00  0.00  0.00  0.00
  YS02001774YS02001770    1.00   0.00  0.25  0.00  0.74  0.00  0.00  0.00  0.00  0.00
  YS02001779YS02001774    1.00   0.00  0.00  0.00  1.00  0.00  0.00  0.00  0.25  0.00
  YS02001783YS02001784    1.00   0.00  0.27  0.00  0.73  0.00  0.00  0.00  0.02  0.00
  YS02001784YS02001785    1.00   0.00  0.00  0.00  1.00  0.00  0.00  0.00  0.24  0.00
  YS02001786YS02001788    1.00   0.00  0.00  0.00  0.77  0.23  0.00  0.00  0.00  0.00
  YS02001788YS02001790    1.00   0.00  0.00  0.00  0.51  0.49  0.00  0.00  0.43  0.00
  YS02001790YS02001791    1.00   0.00  0.00  0.00  0.03  0.97  0.00  0.00  0.18  0.00
  YS02001791YS02001793    1.00   0.00  0.00  0.00  0.00  1.00  0.00  0.00  0.05  0.00
  YS02001793JiankangQianchi    1.00   0.00  0.00  0.00  0.59  0.41  0.00  0.00  0.89  0.00
  YS02001882YS02001884    1.00   0.26  0.00  0.00  0.74  0.00  0.00  0.00  0.00  0.00
  YS02001884YS02001887    1.00   0.12  0.11  0.00  0.77  0.00  0.00  0.00  0.00  0.00
  YS02001887YS02001890    1.00   0.00  0.00  0.00  0.94  0.00  0.06  0.00  0.00  0.00
  YS02001890YS02001895    1.00   0.01  0.26  0.00  0.74  0.00  0.00  0.00  0.00  0.00
  YS02001895YS02001898    1.00   0.26  0.00  0.00  0.72  0.00  0.01  0.00  0.00  0.00
  YS02001898YS02001901    1.00   0.26  0.00  0.00  0.73  0.00  0.00  0.00  0.00  0.00
  YS02001901YS02001904    1.00   0.27  0.00  0.00  0.73  0.00  0.00  0.00  0.00  0.00
  YS02001904YS02001907    1.00   0.01  0.26  0.00  0.73  0.00  0.00  0.00  0.00  0.00
  YS02001907YS02006553    1.00   0.01  0.04  0.00  0.95  0.00  0.00  0.00  0.01  0.00
  YS02001910YS02001907    1.00   0.00  0.00  0.00  0.94  0.01  0.00  0.05  0.20  0.00
  YS02001915YS02001910    1.00   0.00  0.00  0.00  0.96  0.04  0.00  0.00  0.21  0.00
  YS02001918YS02001915    1.00   0.00  0.01  0.00  0.96  0.03  0.00  0.00  0.22  0.00
  YS02001920YS02001918    1.00   0.00  0.01  0.00  0.99  0.00  0.00  0.00  0.00  0.00
  YS02001923YS02001920    1.00   0.00  0.00  0.00  1.00  0.00  0.00  0.00  0.49  0.00
  YS02001926YS02001923    1.00   0.00  0.15  0.00  0.49  0.00  0.36  0.00  0.00  0.00
  YS02001929YS02001926    1.00   0.00  0.25  0.00  0.74  0.01  0.00  0.00  0.26  0.00
  YS02006553YS02006556    1.00   0.03  0.00  0.00  0.97  0.00  0.00  0.00  0.06  0.00
  YS02006556YS02006558    1.00   0.00  0.01  0.00  0.99  0.00  0.00  0.00  0.00  0.00
  YS02006558YS02006561    1.00   0.27  0.00  0.00  0.48  0.25  0.00  0.00  0.19  0.00
  YS02006561YS02001783    1.00   0.27  0.00  0.00  0.52  0.21  0.00  0.00  0.18  0.00
  YS02163301YS02001633    1.00   0.00  0.26  0.00  0.74  0.00  0.00  0.00  0.00  0.00
  YS02163601YS02164001    1.00   0.00  0.16  0.00  0.84  0.00  0.00  0.00  0.00  0.00
  YS02164001YS02001641    1.00   0.02  0.15  0.00  0.84  0.00  0.00  0.00  0.09  0.00
  YSB1154YSB6556          1.00   0.25  0.00  0.00  0.75  0.00  0.00  0.00  0.01  0.00
  YSB1171HS02004479       1.00   0.08  0.00  0.00  0.89  0.00  0.00  0.03  0.16  0.00
  YSB1174YSB1171          1.00   0.10  0.09  0.00  0.81  0.00  0.00  0.00  0.00  0.00
  YSB6556YSB1171          1.00   0.08  0.17  0.00  0.75  0.00  0.00  0.00  0.00  0.00
  
  
  *************************
  Conduit Surcharge Summary
  *************************
  
  ----------------------------------------------------------------------------
                                                           Hours        Hours 
                         --------- Hours Full --------   Above Full   Capacity
  Conduit                Both Ends  Upstream  Dnstream   Normal Flow   Limited
  ----------------------------------------------------------------------------
  HS02004478WS02006287        1.98      1.98      2.06      0.01         0.01
  HS02004479HS02004480        2.10      2.10      2.11      0.01         0.01
  HS02004480HS02004478        2.04      2.10      2.04      2.50         2.04
  HS02004770HS02004777        2.05      2.05      2.05      0.05         0.04
  HS02004777HS02004785        2.01      2.01      2.05      0.01         0.01
  HS02004785HS02004788        2.00      2.01      2.00      1.98         0.67
  HS02004788HS02004792        2.00      2.00      2.08      0.01         0.01
  HS02004792HS02004799        2.08      2.08      2.13      0.01         0.02
  HS02004799HS02004480        2.10      2.10      2.13      2.16         0.01
  HS02004802HS02004478        2.05      2.05      2.10      1.70         0.01
  HS02004807HS02004802        2.08      2.08      2.09      1.87         1.87
  HS02004817HS02004807        2.08      2.08      2.31      0.01         0.01
  HS02004817HS02004824        2.01      2.01      2.31      0.01         0.01
  HS02004824HS02004830        1.98      1.98      2.01      0.47         0.48
  HS02004830HS02004837        1.95      1.95      1.98      0.33         0.33
  HS02004837HS02004842        1.95      1.95      2.04      0.01         0.01
  HS02004842HS02004848        1.93      1.93      2.04      0.01         0.01
  HS02004848HS02004852        1.93      1.93      1.95      0.03         0.06
  HS02004852HS02004856        1.95      1.95      1.96      0.68         0.64
  HS02004856HS02004862        1.93      1.93      1.96      0.01         0.01
  HS02004862HS02004870        1.96      1.96      1.97      0.58         0.55
  HS02004870HS02004876        1.97      1.97      2.02      0.01         0.01
  HS02004876HS02004881        2.00      2.02      2.00      2.47         2.00
  HS02004881HS02006253        2.00      2.00      2.84      0.01         0.01
  HS02004901HS02004770        2.04      2.04      2.05      1.07         0.01
  WS02004401WS02004402        0.01      0.74      0.01      2.37         0.01
  WS02006109WS02006110        2.88      2.88      2.88      2.88         0.01
  WS02006110WS02006113        2.13      2.13      2.88      1.61         0.01
  WS02006111WS02006112        2.04      2.04      2.86      0.01         0.01
  WS02006112WS02006115        1.87      1.87      2.40      1.19         0.01
  WS02006113WS02006111        2.05      2.13      2.05      2.37         2.05
  WS02006115WS02006116        1.32      1.89      1.32      2.40         1.32
  WS02006116WS02004401        0.74      1.80      0.74      2.46         0.74
  WS02006228WS02006109        2.88      2.88      2.88      2.99         2.88
  WS02006229WS02006228        2.88      2.89      2.88      2.92         2.88
  WS02006230WS02006229        2.89      2.89      2.89      3.20         0.72
  WS02006231WS02006230        2.81      2.81      2.87      3.10         2.14
  WS02006232WS02006231        2.87      2.87      2.87      0.04         0.25
  WS02006234WS02006232        2.86      2.86      2.87      0.03         0.01
  WS02006235WS02006234        2.86      2.86      2.86      3.02         2.13
  WS02006238WS02006235        2.86      2.86      2.86      0.02         0.60
  WS02006239WS02006238        2.85      2.85      2.85      2.68         0.50
  WS02006240WS02006239        2.85      2.85      2.85      2.68         0.49
  WS02006242WS02006240        2.84      2.85      2.84      2.73         2.12
  WS02006243WS02006242        2.84      2.84      2.84      0.01         0.01
  WS02006245WS02006243        2.84      2.84      2.84      0.54         0.46
  WS02006247WS02006245        2.84      2.84      2.84      2.91         0.64
  WS02006248WS02006247        2.84      2.84      2.84      0.01         0.01
  WS02006249WS02006248        2.84      2.84      2.84      0.73         0.01
  WS02006251WS02006249        2.84      2.85      2.84      2.98         2.84
  WS02006252WS02006251        2.97      2.97      2.97      2.57         1.53
  WS02006253WS02006251        2.85      2.85      2.87      2.17         0.01
  WS02006256WS02006235        3.08      3.08      3.51      0.27         0.01
  WS02006280WS02006229        2.10      2.10      2.14      0.01         0.01
  WS02006284WS02006280        2.07      2.07      2.10      0.01         0.01
  WS02006287WS02006284        2.03      2.03      2.08      1.91         1.90
  YS02001580YS02001583        2.16      2.16      2.17      0.01         0.01
  YS02001583YS02001586        2.16      2.16      2.22      0.01         0.01
  YS02001586YS02001590        2.23      2.23      2.28      0.01         0.01
  YS02001590YS02001593        2.28      2.28      2.29      2.36         0.01
  YS02001593YS02001596        2.28      2.28      2.34      0.01         0.01
  YS02001596YS02001600        2.37      2.37      2.43      0.01         0.01
  YS02001600YS02001601        2.46      2.46      2.62      0.01         0.01
  YS02001601YS02001602        2.57      2.57      2.64      2.39         0.01
  YS02001602YS02001605        2.55      2.55      2.57      2.95         0.01
  YS02001605YS02001607        2.53      2.55      2.55      2.50         2.46
  YS02001607YS02001610        2.28      2.28      2.30      0.01         0.01
  YS02001610YS02001613        2.28      2.28      2.30      0.01         0.01
  YS02001613YS02001616        2.24      2.24      2.28      0.01         0.01
  YS02001616YS02001619        2.24      2.24      2.24      1.48         1.34
  YS02001619YS02001622        2.24      2.24      2.24      2.20         2.11
  YS02001622YS02001625        2.24      2.24      2.38      0.01         0.01
  YS02001625YS02001629        2.19      2.19      2.38      0.01         0.01
  YS02001629YS02163301        2.39      2.39      2.41      1.04         0.04
  YS02001633YS02163601        2.43      2.43      2.47      0.06         0.07
  YS02001641YS02001644        2.42      2.43      2.42      2.67         2.38
  YS02001644YS02001647        2.28      2.28      2.42      0.03         0.01
  YS02001647YS02001649        2.28      2.28      2.41      0.01         0.01
  YS02001649YS02001757        2.40      2.41      2.49      0.10         0.07
  YS02001652YS02001649        2.27      2.27      2.41      0.68         0.68
  YS02001655YS02001652        2.10      2.10      2.24      0.67         0.66
  YS02001658YS02001655        1.87      1.87      2.10      0.59         0.59
  YS02001661YS02001658        1.46      1.46      1.87      0.55         0.54
  YS02001664YS02001661        0.94      0.94      1.63      0.01         0.01
  YS02001745YS02001748        0.98      0.98      1.79      0.30         0.30
  YS02001748YS02001751        1.86      1.86      2.05      0.40         0.40
  YS02001751YS02001754        2.05      2.05      2.19      0.38         0.39
  YS02001754YS02001757        2.23      2.23      2.49      0.01         0.01
  YS02001757CaochengTiaoxuchi        2.40      2.49      2.72      0.94         0.84
  YS02001759YS02001757        2.41      2.41      2.49      0.10         0.07
  YS02001762YS02001759        2.37      2.37      2.41      0.01         0.03
  YS02001765YS02001762        2.34      2.34      2.37      0.01         0.01
  YS02001767YS02001765        2.31      2.31      2.34      0.01         0.05
  YS02001770YS02001767        2.31      2.31      2.31      1.73         0.78
  YS02001774YS02001770        2.29      2.29      2.36      0.01         0.01
  YS02001779YS02001774        2.18      2.18      2.36      0.01         0.01
  YS02001783YS02001784        1.97      1.99      1.97      2.06         1.97
  YS02001784YS02001785        1.91      1.97      1.91      2.13         1.91
  YS02001786YS02001788        0.01      1.91      0.01      2.10         0.01
  YS02001790YS02001791        0.01      0.01      0.01      1.97         0.01
  YS02001793JiankangQianchi        0.01      0.01      3.71      0.01         0.01
  YS02001882YS02001884        1.96      1.96      1.97      0.01         0.01
  YS02001884YS02001887        1.98      1.98      1.99      0.01         0.01
  YS02001887YS02001890        1.99      1.99      2.00      1.65         0.01
  YS02001890YS02001895        1.95      1.95      2.01      0.01         0.01
  YS02001895YS02001898        1.95      1.95      1.95      0.01         0.01
  YS02001898YS02001901        1.95      1.95      1.98      0.01         0.01
  YS02001901YS02001904        1.97      1.97      1.98      0.01         0.01
  YS02001904YS02001907        1.97      1.97      2.10      0.01         0.01
  YS02001907YS02006553        2.14      2.14      2.16      0.79         0.80
  YS02001910YS02001907        2.00      2.00      2.09      1.24         1.24
  YS02001915YS02001910        1.96      1.96      2.00      0.01         0.05
  YS02001918YS02001915        1.91      1.91      1.96      0.01         0.01
  YS02001920YS02001918        1.91      1.91      1.92      0.79         0.01
  YS02001923YS02001920        1.87      1.87      1.92      0.01         0.01
  YS02001926YS02001923        1.65      1.65      1.71      1.11         0.01
  YS02001929YS02001926        1.30      1.30      1.71      0.01         0.01
  YS02006553YS02006556        2.05      2.05      2.09      0.69         0.69
  YS02006556YS02006558        2.08      2.08      2.10      0.66         0.01
  YS02006558YS02006561        1.93      2.04      1.93      2.12         1.93
  YS02006561YS02001783        1.88      1.88      1.99      0.01         0.01
  YS02163301YS02001633        2.41      2.41      2.44      0.84         0.01
  YS02163601YS02164001        2.42      2.42      2.47      0.04         0.01
  YS02164001YS02001641        2.42      2.42      2.43      1.29         1.31
  YSB1154YSB6556              2.12      2.12      2.16      1.14         0.01
  YSB1171HS02004479           2.07      2.07      2.16      0.01         0.01
  YSB1174YSB1171              2.14      2.14      2.24      0.78         0.79
  YSB6556YSB1171              2.12      2.12      2.30      0.01         0.01
  
  
  ***************
  Pumping Summary
  ***************
  
  ---------------------------------------------------------------------------------------------------------
                                                  Min       Avg       Max     Total     Power    % Time Off
                        Percent   Number of      Flow      Flow      Flow    Volume     Usage    Pump Curve
  Pump                 Utilized   Start-Ups       LPS       LPS       LPS  10^6 ltr     Kw-hr    Low   High
  ---------------------------------------------------------------------------------------------------------
  CC-R1                   70.11           2      0.00    683.00    683.00     6.896    139.57    0.0   61.7
  CC-R2                   68.22           2      0.00    683.00    683.00     6.710    136.12    0.0   63.4
  CC-S1                   72.70           2      0.00    200.00    200.00     2.094     11.96    0.0   54.9
  CC-S2                   71.46           2      0.00    200.00    200.00     2.058     11.63    0.0   55.8
  JK-R1                   46.99           5      0.00   1000.00   1000.00     6.767     57.01    0.0    0.0
  JK-R2                    0.33           1      0.00   1000.00   1000.00     0.047      0.36    0.0    0.0
  JK-S                    57.84           2      0.00    300.00    300.00     2.499     42.45    0.0    0.0
  

  Analysis begun on:  Tue Jun  9 17:05:11 2026
  Analysis ended on:  Tue Jun  9 17:05:12 2026
  Total elapsed time: 00:00:01