
  EPA STORM WATER MANAGEMENT MODEL - VERSION 5.2 (Build 5.2.4)
  PYSWMM TOOLKIT API - VERSION v1.0 (2026-02-26)
  ------------------------------------------------------------

  WARNING 03: negative offset ignored for Link YS02001904YS02001907
  
  ****************
  Analysis Options
  ****************
  Flow Units ............... LPS
  Process Models:
    Rainfall/Runoff ........ YES
    RDII ................... NO
    Snowmelt ............... NO
    Groundwater ............ NO
    Flow Routing ........... YES
    Ponding Allowed ........ NO
    Water Quality .......... NO
  Infiltration Method ...... HORTON
  Flow Routing Method ...... DYNWAVE
  Surcharge Method ......... EXTRAN
  Starting Date ............ 08/28/2015 08:00:00
  Ending Date .............. 08/28/2015 12:00:00
  Antecedent Dry Days ...... 8.0
  Report Time Step ......... 00:01:00
  Wet Time Step ............ 00:01:00
  Dry Time Step ............ 00:01:00
  Routing Time Step ........ 30.00 sec
  Variable Time Step ....... YES
  Maximum Trials ........... 8
  Number of Threads ........ 4
  Head Tolerance ........... 0.001500 m
  
  
  **************************        Volume         Depth
  Runoff Quantity Continuity     hectare-m            mm
  **************************     ---------       -------
  Total Precipitation ......        49.152       811.386
  Evaporation Loss .........         0.000         0.000
  Infiltration Loss ........         0.194         3.198
  Surface Runoff ...........        48.789       805.388
  Final Storage ............         0.188         3.108
  Continuity Error (%) .....        -0.038
  
  
  **************************        Volume        Volume
  Flow Routing Continuity        hectare-m      10^6 ltr
  **************************     ---------     ---------
  Dry Weather Inflow .......         0.026         0.261
  Wet Weather Inflow .......        48.787       487.870
  Groundwater Inflow .......         0.000         0.000
  RDII Inflow ..............         0.000         0.000
  External Inflow ..........         0.015         0.148
  External Outflow .........         3.626        36.264
  Flooding Loss ............        45.021       450.212
  Evaporation Loss .........         0.000         0.000
  Exfiltration Loss ........         0.000         0.000
  Initial Stored Volume ....         0.243         2.431
  Final Stored Volume ......         0.425         4.254
  Continuity Error (%) .....        -0.004
  
  
  *************************
  Highest Continuity Errors
  *************************
  Node YS02001583 (-14.56%)
  Node YS02001884 (8.21%)
  
  
  ***************************
  Time-Step Critical Elements
  ***************************
  Link YS02001791YS02001793 (48.85%)
  Link WS02006280WS02006229 (23.26%)
  Link WS02006238WS02006235 (12.23%)
  Link WS02006115WS02006116 (2.22%)
  Link YS02001661YS02001658 (1.44%)
  
  
  ********************************
  Highest Flow Instability Indexes
  ********************************
  Link WS02006238WS02006235 (47)
  Link YS02001605YS02001607 (44)
  Link YS02001602YS02001605 (43)
  Link WS02006229WS02006228 (43)
  Link WS02006280WS02006229 (43)
  
  
  *********************************
  Most Frequent Nonconverging Nodes
  *********************************
  Node CC-1 (14.78%)
  Node CC-2 (14.78%)
  Node JK-1 (14.78%)
  Node JK-2 (14.78%)
  Node WS02004402 (14.78%)
  
  
  *************************
  Routing Time Step Summary
  *************************
  Minimum Time Step           :     0.04 sec
  Average Time Step           :     2.12 sec
  Maximum Time Step           :     9.92 sec
  % of Time in Steady State   :     0.00
  Average Iterations per Step :     4.39
  % of Steps Not Converging   :    14.78
  Time Step Frequencies       :
     30.000 - 13.228 sec      :     0.00 %
     13.228 -  5.833 sec      :     3.73 %
      5.833 -  2.572 sec      :     5.00 %
      2.572 -  1.134 sec      :    82.89 %
      1.134 -  0.500 sec      :     8.39 %
  
  
  ***************************
  Subcatchment Runoff Summary
  ***************************
  
  ------------------------------------------------------------------------------------------------------------------------------
                            Total      Total      Total      Total     Imperv       Perv      Total       Total     Peak  Runoff
                           Precip      Runon       Evap      Infil     Runoff     Runoff     Runoff      Runoff   Runoff   Coeff
  Subcatchment                 mm         mm         mm         mm         mm         mm         mm    10^6 ltr      LPS
  ------------------------------------------------------------------------------------------------------------------------------
  sub0                     811.39       0.00       0.00       1.01     753.54      55.75     809.29        0.66   562.16   0.997
  sub1                     811.39       0.00       0.00       1.58     720.66      87.41     808.06        5.37  4299.49   0.996
  sub10                    811.39       0.00       0.00       1.15     745.02      63.62     808.64        8.92  7217.29   0.997
  sub11                    811.39       0.00       0.00       1.15     745.19      63.65     808.84        9.40  7777.83   0.997
  sub12                    811.39       0.00       0.00       1.87     704.87     103.43     808.30        7.06  5991.78   0.996
  sub14                    811.39       0.00       0.00       1.29     737.02      71.58     808.59        7.70  6302.71   0.997
  sub15                    811.39       0.00       0.00       4.31     566.90     237.51     804.41       13.84 10609.76   0.991
  sub16                    811.39       0.00       0.00       4.74     542.80     261.75     804.55        8.42  6768.18   0.992
  sub17                    811.39       0.00       0.00       4.60     550.88     253.78     804.66        6.90  5525.64   0.992
  sub2                     811.39       0.00       0.00       5.31     509.94     290.96     800.90        7.46  5136.06   0.987
  sub22                    811.39       0.00       0.00       6.18     461.71     339.71     801.42       50.63 37056.93   0.988
  sub23                    811.39       0.00       0.00       5.31     510.33     292.91     803.24       38.31 29373.53   0.990
  sub3                     811.39       0.00       0.00       5.31     509.58     289.22     798.80       17.98 11711.48   0.984
  sub4                     811.39       0.00       0.00       1.58     719.20      87.14     806.35       16.82 11983.21   0.994
  sub5                     811.39       0.00       0.00       1.01     753.04      55.68     808.72        9.16  7355.56   0.997
  sub60                    811.39       0.00       0.00       1.72     712.83      95.42     808.25       10.62  8811.76   0.996
  sub61                    811.39       0.00       0.00       2.44     672.36     135.09     807.46       14.82 12280.72   0.995
  sub62                    811.39       0.00       0.00       1.15     744.96      63.62     808.58       22.16 17815.08   0.997
  sub63                    811.39       0.00       0.00       4.17     575.13     229.96     805.09       18.28 14567.17   0.992
  sub64                    811.39       0.00       0.00       2.15     688.12     119.02     807.14       19.39 15094.92   0.995
  sub65                    811.39       0.00       0.00       1.87     704.14     103.16     807.30       22.23 17045.05   0.995
  sub66                    811.39       0.00       0.00       4.17     574.18     227.84     802.02       37.40 25524.54   0.988
  sub67                    811.39       0.00       0.00       1.15     745.35      63.69     809.04       15.05 12741.25   0.997
  sub68                    811.39       0.00       0.00       2.01     696.52     111.24     807.76       22.23 18106.02   0.996
  sub69                    811.39       0.00       0.00       2.15     689.05     119.51     808.56       29.93 22737.70   0.997
  sub7                     811.39       0.00       0.00       1.29     737.15      71.61     808.76        2.73  2274.34   0.997
  sub70                    811.39       0.00       0.00       4.88     534.35     266.44     800.80       23.14 14759.87   0.987
  sub71                    811.39       0.00       0.00       1.15     744.59      63.57     808.16       21.13 16312.56   0.996
  sub72                    811.39       0.00       0.00       1.01     752.15      55.60     807.75       11.11  8200.29   0.996
  sub8                     811.39       0.00       0.00       1.29     737.06      71.59     808.65        5.17  4254.94   0.997
  sub9                     811.39       0.00       0.00       1.29     737.04      71.58     808.62        3.89  3192.86   0.997
  
  
  ******************
  Node Depth Summary
  ******************
  
  ---------------------------------------------------------------------------------
                                 Average  Maximum  Maximum  Time of Max    Reported
                                   Depth    Depth      HGL   Occurrence   Max Depth
  Node                 Type       Meters   Meters   Meters  days hr:min      Meters
  ---------------------------------------------------------------------------------
  HS02004478           JUNCTION     0.95     1.75    10.98     0  01:10        1.60
  HS02004479           JUNCTION     1.05     1.85    11.05     0  01:10        1.68
  HS02004480           JUNCTION     1.01     1.81    11.05     0  01:10        1.66
  HS02004770           JUNCTION     0.90     1.42    11.25     0  01:09        1.42
  HS02004777           JUNCTION     0.93     1.48    11.28     0  01:09        1.48
  HS02004785           JUNCTION     0.83     1.49    11.39     0  01:09        1.41
  HS02004788           JUNCTION     0.82     1.42    11.32     0  01:09        1.42
  HS02004792           JUNCTION     0.98     1.60    11.12     0  01:08        1.60
  HS02004799           JUNCTION     1.12     1.76    10.97     0  01:10        1.76
  HS02004802           JUNCTION     1.11     1.82    10.95     0  01:10        1.81
  HS02004807           JUNCTION     1.16     1.92    11.09     0  01:13        1.92
  HS02004817           JUNCTION     1.53     2.44    11.29     0  01:13        2.44
  HS02004824           JUNCTION     1.12     2.01    11.41     0  01:13        2.01
  HS02004830           JUNCTION     1.11     2.03    11.50     0  01:13        2.03
  HS02004837           JUNCTION     1.06     2.04    11.62     0  01:41        2.04
  HS02004842           JUNCTION     1.33     2.22    11.49     0  01:12        2.22
  HS02004848           JUNCTION     1.07     2.07    11.67     0  01:37        2.07
  HS02004852           JUNCTION     1.09     2.12    11.63     0  01:12        2.08
  HS02004856           JUNCTION     1.12     2.07    11.50     0  01:12        2.07
  HS02004862           JUNCTION     1.09     2.00    11.38     0  01:12        2.00
  HS02004870           JUNCTION     1.10     2.10    11.39     0  01:35        2.10
  HS02004876           JUNCTION     1.20     2.26    11.29     0  01:33        2.26
  HS02004881           JUNCTION     1.06     2.15    11.18     0  01:41        2.15
  HS02004901           JUNCTION     0.89     1.42    11.28     0  01:08        1.42
  WS02004401           JUNCTION     0.74     1.19     7.19     0  01:43        1.19
  WS02006109           JUNCTION     1.92     2.64     9.26     0  01:26        2.64
  WS02006110           JUNCTION     1.66     2.76     9.34     0  01:08        2.48
  WS02006111           JUNCTION     0.91     1.99     8.70     0  01:43        1.99
  WS02006112           JUNCTION     1.44     2.68     8.56     0  01:41        2.68
  WS02006113           JUNCTION     1.08     1.99     8.88     0  01:41        1.99
  WS02006115           JUNCTION     0.97     1.88     8.02     0  01:44        1.88
  WS02006116           JUNCTION     0.90     1.61     7.65     0  01:42        1.60
  WS02006228           JUNCTION     2.19     3.03     9.68     0  01:09        3.02
  WS02006229           JUNCTION     2.32     3.25     9.94     0  01:10        3.22
  WS02006230           JUNCTION     2.00     2.65     9.39     0  01:09        2.65
  WS02006231           JUNCTION     1.61     2.24     9.36     0  01:08        2.19
  WS02006232           JUNCTION     1.66     2.18     9.22     0  01:08        2.18
  WS02006234           JUNCTION     1.49     1.96     9.12     0  01:09        1.96
  WS02006235           JUNCTION     1.48     2.00     9.16     0  01:09        1.94
  WS02006238           JUNCTION     1.49     2.15     9.29     0  01:09        1.94
  WS02006239           JUNCTION     1.39     2.03     9.24     0  01:09        1.79
  WS02006240           JUNCTION     1.28     2.10     9.39     0  01:10        1.63
  WS02006242           JUNCTION     1.26     1.55     8.82     0  01:10        1.55
  WS02006243           JUNCTION     1.11     1.48     8.90     0  01:10        1.37
  WS02006245           JUNCTION     1.05     1.56     9.04     0  01:10        1.27
  WS02006247           JUNCTION     1.03     1.47     8.97     0  01:10        1.23
  WS02006248           JUNCTION     0.95     1.10     8.69     0  01:10        1.10
  WS02006249           JUNCTION     0.95     1.09     8.69     0  01:10        1.09
  WS02006251           JUNCTION     1.59     2.21     9.88     0  01:12        2.21
  WS02006252           JUNCTION     1.08     1.50     9.74     0  00:00        1.50
  WS02006253           JUNCTION     2.15     3.46    11.10     0  01:49        3.46
  WS02006256           JUNCTION     1.88     2.35     9.28     0  00:00        2.35
  WS02006280           JUNCTION     1.08     1.83    10.10     0  01:10        1.74
  WS02006284           JUNCTION     1.29     2.08    10.48     0  01:09        1.94
  WS02006287           JUNCTION     1.08     1.89    10.84     0  01:10        1.74
  YS02001580           JUNCTION     0.48     1.05     9.59     0  01:10        0.78
  YS02001583           JUNCTION     0.52     1.14     9.64     0  01:10        0.82
  YS02001586           JUNCTION     0.76     1.13     9.30     0  01:09        1.13
  YS02001590           JUNCTION     0.94     1.40     9.26     0  01:08        1.38
  YS02001593           JUNCTION     0.86     1.36     9.22     0  01:10        1.29
  YS02001596           JUNCTION     1.12     1.72     9.14     0  01:07        1.65
  YS02001600           JUNCTION     1.30     1.87     9.00     0  01:08        1.86
  YS02001601           JUNCTION     1.50     2.06     8.90     0  01:08        2.06
  YS02001602           JUNCTION     1.36     1.87     8.77     0  01:11        1.87
  YS02001605           JUNCTION     1.27     1.78     8.68     0  01:11        1.78
  YS02001607           JUNCTION     1.18     1.68     8.53     0  01:11        1.65
  YS02001610           JUNCTION     1.22     1.68     8.48     0  01:11        1.68
  YS02001613           JUNCTION     1.19     1.68     8.53     0  01:11        1.67
  YS02001616           JUNCTION     1.13     1.61     8.52     0  01:11        1.61
  YS02001619           JUNCTION     1.12     1.61     8.54     0  01:11        1.61
  YS02001622           JUNCTION     1.10     1.59     8.49     0  02:30        1.59
  YS02001625           JUNCTION     1.31     1.78     8.38     0  01:11        1.78
  YS02001629           JUNCTION     1.34     1.85     8.40     0  01:11        1.85
  YS02001633           JUNCTION     1.46     2.08     8.53     0  01:32        2.08
  YS02001641           JUNCTION     1.40     1.97     8.41     0  01:34        1.97
  YS02001644           JUNCTION     1.38     1.92     8.35     0  01:14        1.92
  YS02001647           JUNCTION     1.21     1.79     8.40     0  01:31        1.79
  YS02001649           JUNCTION     1.40     2.05     8.44     0  01:30        2.05
  YS02001652           JUNCTION     1.30     2.15     8.75     0  01:36        2.15
  YS02001655           JUNCTION     1.17     2.20     9.05     0  01:36        2.20
  YS02001658           JUNCTION     1.04     2.30     9.44     0  01:37        2.30
  YS02001661           JUNCTION     0.96     2.44     9.84     0  01:44        2.43
  YS02001664           JUNCTION     0.68     2.31    10.23     0  01:37        2.31
  YS02001745           JUNCTION     0.73     2.35     9.87     0  01:42        2.35
  YS02001748           JUNCTION     0.98     2.27     9.35     0  01:40        2.27
  YS02001751           JUNCTION     1.08     2.20     9.08     0  01:43        2.19
  YS02001754           JUNCTION     1.25     2.19     8.79     0  01:45        2.18
  YS02001757           JUNCTION     1.50     2.21     8.47     0  01:35        2.21
  YS02001759           JUNCTION     1.45     2.21     8.57     0  01:35        2.21
  YS02001762           JUNCTION     1.42     2.15     8.55     0  01:36        2.15
  YS02001765           JUNCTION     1.37     2.08     8.53     0  01:41        2.08
  YS02001767           JUNCTION     1.34     2.03     8.52     0  01:13        2.01
  YS02001770           JUNCTION     1.33     1.95     8.44     0  01:13        1.95
  YS02001774           JUNCTION     1.38     2.05     8.47     0  01:13        2.01
  YS02001779           JUNCTION     1.13     1.68     8.37     0  01:13        1.68
  YS02001783           JUNCTION     0.82     1.48     7.62     0  01:45        1.48
  YS02001784           JUNCTION     0.76     1.31     7.38     0  01:44        1.31
  YS02001786           JUNCTION     0.60     0.99     7.02     0  01:44        0.99
  YS02001788           JUNCTION     0.42     0.68     6.65     0  01:38        0.68
  YS02001790           JUNCTION     0.47     0.74     6.39     0  02:18        0.74
  YS02001791           JUNCTION     0.29     0.46     5.93     0  01:39        0.46
  YS02001793           JUNCTION     0.15     0.30     5.13     0  02:23        0.29
  YS02001882           JUNCTION     1.05     1.83     8.55     0  01:11        1.82
  YS02001884           JUNCTION     1.14     1.93     8.55     0  01:36        1.92
  YS02001887           JUNCTION     1.21     2.00     8.54     0  01:35        2.00
  YS02001890           JUNCTION     1.19     1.81     8.32     0  01:11        1.81
  YS02001895           JUNCTION     0.96     1.63     8.37     0  01:11        1.57
  YS02001898           JUNCTION     0.96     1.59     8.33     0  01:12        1.56
  YS02001901           JUNCTION     1.06     1.70     8.31     0  01:12        1.67
  YS02001904           JUNCTION     1.04     1.66     8.29     0  02:16        1.66
  YS02001907           JUNCTION     1.34     1.96     8.25     0  01:12        1.96
  YS02001910           JUNCTION     1.25     2.02     8.52     0  02:23        2.02
  YS02001915           JUNCTION     1.15     2.00     8.72     0  01:26        2.00
  YS02001918           JUNCTION     0.94     1.81     8.88     0  01:13        1.81
  YS02001920           JUNCTION     1.05     2.14     9.15     0  01:13        2.03
  YS02001923           JUNCTION     0.88     2.03     9.29     0  01:13        1.92
  YS02001926           JUNCTION     0.84     1.90     9.35     0  01:13        1.87
  YS02001929           JUNCTION     0.71     1.78     9.47     0  01:13        1.78
  YS02006553           JUNCTION     1.37     2.14     8.42     0  01:41        2.13
  YS02006556           JUNCTION     1.39     2.33     8.64     0  01:44        2.33
  YS02006558           JUNCTION     1.45     2.50     8.77     0  01:37        2.50
  YS02006561           JUNCTION     0.60     1.23     7.89     0  01:12        1.20
  YS02163301           JUNCTION     1.38     1.95     8.47     0  01:35        1.95
  YS02163601           JUNCTION     1.47     2.08     8.48     0  01:35        2.08
  YS02164001           JUNCTION     1.40     1.98     8.44     0  02:16        1.98
  YSB1154              JUNCTION     1.28     2.10    11.16     0  01:29        2.10
  YSB1171              JUNCTION     1.31     1.95    10.85     0  01:10        1.95
  YSB1174              JUNCTION     1.19     1.95    11.06     0  01:32        1.95
  YSB6556              JUNCTION     1.12     1.80    10.97     0  01:27        1.80
  CC-1                 OUTFALL      0.00     0.00     0.00     0  00:00        0.00
  CC-2                 OUTFALL      0.00     0.00     0.00     0  00:00        0.00
  JK-1                 OUTFALL      0.00     0.00     0.00     0  00:00        0.00
  JK-2                 OUTFALL      0.00     0.00     0.00     0  00:00        0.00
  WS02004402           OUTFALL      0.60     0.88     6.84     0  01:43        0.88
  CC-storage           STORAGE      1.71     2.30     7.80     0  02:12        2.30
  JK-storage           STORAGE      2.15     4.24     5.04     0  02:23        4.17
  
  
  *******************
  Node Inflow Summary
  *******************
  
  -------------------------------------------------------------------------------------------------
                                  Maximum  Maximum                  Lateral       Total        Flow
                                  Lateral    Total  Time of Max      Inflow      Inflow     Balance
                                   Inflow   Inflow   Occurrence      Volume      Volume       Error
  Node                 Type           LPS      LPS  days hr:min    10^6 ltr    10^6 ltr     Percent
  -------------------------------------------------------------------------------------------------
  HS02004478           JUNCTION      0.00  2525.91     0  01:09           0        18.2      -0.001
  HS02004479           JUNCTION      0.00   512.06     0  01:12           0        1.75       0.101
  HS02004480           JUNCTION      0.00  2353.66     0  01:10           0        11.1       0.023
  HS02004770           JUNCTION  29373.53 30269.22     0  01:49        38.3        42.5       0.013
  HS02004777           JUNCTION      0.03   849.21     0  01:09    0.000432        2.66       0.314
  HS02004785           JUNCTION      0.15   852.84     0  01:09     0.00216        2.66       0.125
  HS02004788           JUNCTION  10611.43 10611.43     0  01:49        13.9        15.2       0.007
  HS02004792           JUNCTION  37057.21 38146.92     0  01:49        50.6        57.7       0.004
  HS02004799           JUNCTION   6302.71  7444.80     0  01:49         7.7        17.2       0.052
  HS02004802           JUNCTION      0.00  1239.70     0  02:47           0        8.51       0.064
  HS02004807           JUNCTION   7777.83  8974.37     0  01:49         9.4        17.2       0.042
  HS02004817           JUNCTION      0.60  1197.03     0  01:27     0.00864        7.89       0.249
  HS02004824           JUNCTION  11983.26 12855.49     0  01:50        16.8        21.1       0.009
  HS02004830           JUNCTION      0.15  1048.39     0  01:55     0.00216        4.53       0.062
  HS02004837           JUNCTION   7223.64  7223.64     0  01:49        9.01        9.47       0.023
  HS02004842           JUNCTION      0.00  2354.69     0  01:54           0         7.6       0.188
  HS02004848           JUNCTION  11711.48 11711.48     0  01:50          18        18.3       0.009
  HS02004852           JUNCTION      0.00  1092.08     0  01:11           0        5.26       0.026
  HS02004856           JUNCTION   3192.86  4073.60     0  01:49        3.89        9.15       0.019
  HS02004862           JUNCTION   5136.26  6290.48     0  01:50        7.47        14.1       0.015
  HS02004870           JUNCTION   4254.94  4254.94     0  01:49        5.17        9.73       0.012
  HS02004876           JUNCTION   4299.49  5225.47     0  01:49        5.37        13.3       0.027
  HS02004881           JUNCTION   2274.34  3264.89     0  01:49        2.73        12.5       0.007
  HS02004901           JUNCTION   6768.18  6768.18     0  01:49        8.42        8.42       0.027
  WS02004401           JUNCTION      0.00  2427.44     0  01:43           0          16       0.089
  WS02006109           JUNCTION      1.23  1364.87     0  01:10      0.0177        12.1       0.177
  WS02006110           JUNCTION      0.00  1366.75     0  01:10           0        11.2       0.199
  WS02006111           JUNCTION      0.00  1371.50     0  01:10           0        11.1       0.056
  WS02006112           JUNCTION   5525.64  6363.10     0  01:49         6.9          18       0.221
  WS02006113           JUNCTION      0.00  1369.34     0  01:10           0        11.1       0.131
  WS02006115           JUNCTION      0.00  2427.27     0  01:43           0        16.1       0.119
  WS02006116           JUNCTION      0.00  2427.70     0  01:44           0          16       0.055
  WS02006228           JUNCTION      0.00  1361.57     0  01:10           0        12.1       0.109
  WS02006229           JUNCTION      0.00  2327.28     0  02:50           0        19.3       0.076
  WS02006230           JUNCTION     10.28  1025.23     0  02:16       0.148        8.48       0.254
  WS02006231           JUNCTION      0.00   744.95     0  01:09           0        4.57       0.286
  WS02006232           JUNCTION      0.00   744.44     0  01:09           0        4.56       0.367
  WS02006234           JUNCTION      0.00   744.08     0  01:09           0        4.55       0.334
  WS02006235           JUNCTION      0.00   765.63     0  01:09           0        4.29       0.169
  WS02006238           JUNCTION      0.00   725.14     0  01:09           0        4.17       0.152
  WS02006239           JUNCTION      0.00   730.27     0  01:09           0        4.15       0.281
  WS02006240           JUNCTION      0.00   929.94     0  01:10           0        4.14       0.300
  WS02006242           JUNCTION      0.00   925.95     0  01:10           0        4.14       0.352
  WS02006243           JUNCTION      0.00   659.14     0  01:10           0        3.12       0.501
  WS02006245           JUNCTION      0.00   477.88     0  01:10           0        3.14       0.594
  WS02006247           JUNCTION      0.00   485.53     0  01:10           0        3.15       0.363
  WS02006248           JUNCTION      0.00   511.66     0  01:10           0        3.66       0.324
  WS02006249           JUNCTION      0.00  1411.09     0  01:56           0        11.7       0.174
  WS02006251           JUNCTION      0.08  1944.88     0  01:49     0.00111        13.9       0.126
  WS02006252           JUNCTION      0.00   820.21     0  01:39           0        6.25       0.007
  WS02006253           JUNCTION    562.16  1944.81     0  01:49       0.655        12.4       0.122
  WS02006256           JUNCTION      0.00   300.00     0  00:00           0        2.44      -0.052
  WS02006280           JUNCTION      0.00  2326.21     0  02:52           0        18.1      -0.010
  WS02006284           JUNCTION      0.10  2380.38     0  01:09     0.00138        18.1       0.002
  WS02006287           JUNCTION      0.00  2502.52     0  01:09           0        18.1       0.065
  YS02001580           JUNCTION      0.00   176.89     0  01:10           0      0.0046      -0.265
  YS02001583           JUNCTION      0.00   246.50     0  01:10           0      0.0146     -12.708
  YS02001586           JUNCTION  14759.87 14759.87     0  01:50        23.1        23.1       0.013
  YS02001590           JUNCTION      0.00   318.12     0  01:14           0        2.71       0.087
  YS02001593           JUNCTION      0.00   318.05     0  01:27           0        2.71       0.045
  YS02001596           JUNCTION      0.00   318.12     0  01:23           0        2.71       0.014
  YS02001600           JUNCTION      0.00   318.15     0  02:30           0        2.71       0.049
  YS02001601           JUNCTION  22737.70 23055.20     0  01:49        29.9        32.6       0.015
  YS02001602           JUNCTION      0.00   607.79     0  01:10           0         3.6       0.139
  YS02001605           JUNCTION      0.00   607.75     0  01:10           0        3.14       0.226
  YS02001607           JUNCTION      0.00   607.63     0  01:10           0        3.14       0.259
  YS02001610           JUNCTION      0.00   955.95     0  02:21           0         6.7       0.133
  YS02001613           JUNCTION      0.00   619.33     0  01:35           0         4.4       0.168
  YS02001616           JUNCTION      0.00   619.37     0  02:21           0        4.41       0.117
  YS02001619           JUNCTION  25524.54 25524.54     0  01:50        37.4        38.2       0.011
  YS02001622           JUNCTION      0.00  1053.99     0  02:23           0        8.39       0.062
  YS02001625           JUNCTION      0.00  1505.48     0  02:23           0          11       0.228
  YS02001629           JUNCTION      0.00  1138.95     0  02:18           0        6.68       0.023
  YS02001633           JUNCTION  17045.25 17045.25     0  01:49        22.2        23.8       0.055
  YS02001641           JUNCTION      0.00  1384.55     0  01:12           0        6.73       0.132
  YS02001644           JUNCTION  15094.96 16846.61     0  01:49        19.4        29.5       0.035
  YS02001647           JUNCTION      0.00  1867.01     0  01:12           0         6.4       0.068
  YS02001649           JUNCTION      0.00  3236.86     0  01:45           0        14.9       0.039
  YS02001652           JUNCTION      0.00  2429.25     0  01:45           0        10.3      -0.032
  YS02001655           JUNCTION      0.15  2731.44     0  02:00     0.00222        10.9       0.025
  YS02001658           JUNCTION      0.00  2783.73     0  01:44           0          11      -0.005
  YS02001661           JUNCTION      0.00  2783.77     0  01:43           0          11      -0.004
  YS02001664           JUNCTION  14567.17 14567.17     0  01:49        18.3        18.3      -0.001
  YS02001745           JUNCTION   8811.76  8811.76     0  01:49        10.6        10.6       0.015
  YS02001748           JUNCTION      0.04  3122.13     0  01:51    0.000648        8.35      -0.038
  YS02001751           JUNCTION      0.01  2353.97     0  01:42    0.000158        7.51       0.030
  YS02001754           JUNCTION      0.26  2354.47     0  01:42     0.00374        7.51      -0.034
  YS02001757           JUNCTION      0.00  3761.67     0  01:42           0        21.5       0.159
  YS02001759           JUNCTION  12280.76 12280.76     0  01:49        14.8        16.4       0.022
  YS02001762           JUNCTION      0.00   792.93     0  01:17           0        3.54       0.092
  YS02001765           JUNCTION      0.00   794.27     0  01:17           0        3.54       0.084
  YS02001767           JUNCTION      0.54   795.22     0  01:17      0.0077        3.55       0.099
  YS02001770           JUNCTION  17815.23 18537.40     0  01:49        22.2        24.2       0.010
  YS02001774           JUNCTION      0.00   852.09     0  02:23           0        4.62       0.087
  YS02001779           JUNCTION      0.01   851.77     0  02:23     7.2e-05        4.58      -0.012
  YS02001783           JUNCTION      0.00  1321.64     0  01:44           0        9.18       0.011
  YS02001784           JUNCTION      1.06  1322.44     0  01:41      0.0153         9.2       0.022
  YS02001786           JUNCTION      0.06  1322.68     0  01:42    0.000811         9.2       0.019
  YS02001788           JUNCTION      0.07  1322.75     0  01:42     0.00102         9.2       0.011
  YS02001790           JUNCTION      0.15  1328.69     0  01:39     0.00223         9.2       0.036
  YS02001791           JUNCTION      0.00  1373.78     0  01:38           0         9.2      -0.030
  YS02001793           JUNCTION      0.00  1358.84     0  01:39           0         9.2       0.007
  YS02001882           JUNCTION      0.00   109.76     0  01:10           0       0.013      11.637
  YS02001884           JUNCTION      0.00   197.83     0  01:10           0      0.0486       8.942
  YS02001887           JUNCTION  12741.70 12741.70     0  01:49        15.1        15.1       0.041
  YS02001890           JUNCTION      0.00  2052.03     0  01:47           0        8.54       0.080
  YS02001895           JUNCTION      0.00   548.78     0  01:11           0        3.57       0.118
  YS02001898           JUNCTION      0.00   558.28     0  01:11           0        3.57       0.013
  YS02001901           JUNCTION      0.00   571.08     0  01:11           0        3.57       0.144
  YS02001904           JUNCTION      0.00   575.33     0  01:11           0        3.59       0.119
  YS02001907           JUNCTION      0.00  4670.23     0  01:42           0        21.3       0.098
  YS02001910           JUNCTION      0.00  1993.20     0  02:23           0        11.9       0.079
  YS02001915           JUNCTION  16312.58 17534.27     0  01:49        21.1        26.9       0.010
  YS02001918           JUNCTION      0.00  1681.67     0  01:44           0        6.81       0.010
  YS02001920           JUNCTION      2.87  1681.85     0  01:41      0.0413        6.79       0.015
  YS02001923           JUNCTION      0.04  1679.00     0  01:43    0.000543        6.73      -0.012
  YS02001926           JUNCTION      0.05  1678.72     0  01:44    0.000752        6.71      -0.008
  YS02001929           JUNCTION   8200.29  8200.29     0  01:50        11.1        11.1      -0.011
  YS02006553           JUNCTION      0.00  2160.53     0  01:44           0         7.5       0.183
  YS02006556           JUNCTION      0.00  2160.66     0  01:41           0        7.52       0.127
  YS02006558           JUNCTION  18106.90 18106.90     0  01:49        22.2        23.8       0.017
  YS02006561           JUNCTION      0.00  1321.37     0  01:41           0        9.19       0.005
  YS02163301           JUNCTION      0.00  1138.84     0  02:18           0        6.69       0.123
  YS02163601           JUNCTION      0.11  1387.82     0  01:12     0.00158        6.73       0.212
  YS02164001           JUNCTION      0.00  1386.62     0  01:12           0        6.72       0.118
  YSB1154              JUNCTION   7355.56  7355.56     0  01:49        9.16        9.16       0.024
  YSB1171              JUNCTION      0.00  1630.81     0  01:35           0        8.55       0.101
  YSB1174              JUNCTION   5991.78  5991.78     0  01:49        7.06        7.06       0.029
  YSB6556              JUNCTION      0.00   725.69     0  02:17           0        3.91       0.069
  CC-1                 OUTFALL       0.00   683.00     0  00:00           0        6.86       0.000
  CC-2                 OUTFALL       0.00   683.00     0  00:00           0        6.68       0.000
  JK-1                 OUTFALL       0.00  1000.00     0  00:00           0        6.66       0.000
  JK-2                 OUTFALL       0.00  1000.00     0  00:00           0      0.0483       0.000
  WS02004402           OUTFALL       0.00  2427.41     0  01:43           0          16       0.000
  CC-storage           STORAGE       0.00  3456.82     0  01:17           0        21.5       0.014
  JK-storage           STORAGE       0.00  1357.46     0  01:39           0        9.35       0.072
  
  
  **********************
  Node Surcharge Summary
  **********************
  
  Surcharging occurs when water rises above the top of the highest conduit.
  ---------------------------------------------------------------------
                                               Max. Height   Min. Depth
                                   Hours       Above Crown    Below Rim
  Node                 Type      Surcharged         Meters       Meters
  ---------------------------------------------------------------------
  HS02004478           JUNCTION        1.93          0.828        0.112
  HS02004479           JUNCTION        2.02          1.050        0.000
  HS02004480           JUNCTION        2.04          1.100        0.000
  HS02004770           JUNCTION        1.99          0.720        0.000
  HS02004777           JUNCTION        2.00          0.780        0.000
  HS02004785           JUNCTION        1.96          0.790        0.000
  HS02004788           JUNCTION        1.95          0.720        0.000
  HS02004792           JUNCTION        2.02          0.900        0.000
  HS02004799           JUNCTION        2.08          1.060        0.000
  HS02004802           JUNCTION        2.04          1.108        0.102
  HS02004807           JUNCTION        2.03          1.220        0.000
  HS02004817           JUNCTION        2.25          1.740        0.000
  HS02004824           JUNCTION        1.95          1.310        0.000
  HS02004830           JUNCTION        1.93          1.330        0.000
  HS02004837           JUNCTION        1.90          1.340        0.000
  HS02004842           JUNCTION        1.98          1.520        0.000
  HS02004848           JUNCTION        1.88          1.370        0.000
  HS02004852           JUNCTION        1.89          1.420        0.000
  HS02004856           JUNCTION        1.88          1.300        0.000
  HS02004862           JUNCTION        1.90          1.300        0.000
  HS02004870           JUNCTION        1.91          1.400        0.000
  HS02004876           JUNCTION        1.96          1.560        0.000
  HS02004881           JUNCTION        1.94          1.450        0.000
  HS02004901           JUNCTION        1.98          0.720        0.000
  WS02004401           JUNCTION        0.74          0.194        1.466
  WS02006109           JUNCTION        2.87          1.820        0.000
  WS02006110           JUNCTION        2.87          1.850        0.000
  WS02006111           JUNCTION        1.99          1.185        0.685
  WS02006112           JUNCTION        2.35          1.680        0.000
  WS02006113           JUNCTION        2.08          1.191        0.739
  WS02006115           JUNCTION        1.83          0.875        1.375
  WS02006116           JUNCTION        1.21          0.549        1.741
  WS02006228           JUNCTION        2.87          2.200        0.000
  WS02006229           JUNCTION        2.08          1.070        0.000
  WS02006230           JUNCTION        2.75          1.570        0.000
  WS02006231           JUNCTION        2.86          1.530        0.000
  WS02006232           JUNCTION        2.86          1.480        0.000
  WS02006234           JUNCTION        2.84          1.240        0.000
  WS02006235           JUNCTION        2.84          1.290        0.000
  WS02006238           JUNCTION        2.84          1.430        0.000
  WS02006239           JUNCTION        2.84          1.290        0.000
  WS02006240           JUNCTION        2.83          1.390        0.000
  WS02006242           JUNCTION        2.83          0.820        0.000
  WS02006243           JUNCTION        2.83          0.770        0.000
  WS02006245           JUNCTION        2.83          0.850        0.000
  WS02006247           JUNCTION        2.83          0.760        0.000
  WS02006248           JUNCTION        2.83          0.380        0.000
  WS02006249           JUNCTION        2.83          0.390        0.000
  WS02006251           JUNCTION        2.82          1.180        0.000
  WS02006252           JUNCTION        2.96          1.100        0.000
  WS02006253           JUNCTION        2.82          2.421        0.059
  WS02006256           JUNCTION        3.50          2.050        0.000
  WS02006280           JUNCTION        2.04          0.780        0.000
  WS02006284           JUNCTION        2.01          0.800        0.000
  WS02006287           JUNCTION        1.98          0.890        0.000
  YS02001580           JUNCTION        2.08          0.450        0.000
  YS02001583           JUNCTION        2.08          0.500        0.000
  YS02001586           JUNCTION        2.15          0.510        0.000
  YS02001590           JUNCTION        2.20          0.750        0.000
  YS02001593           JUNCTION        2.20          0.741        0.099
  YS02001596           JUNCTION        2.27          0.989        0.081
  YS02001600           JUNCTION        2.35          1.190        0.000
  YS02001601           JUNCTION        2.55          1.440        0.000
  YS02001602           JUNCTION        2.50          1.270        0.000
  YS02001605           JUNCTION        2.48          1.180        0.000
  YS02001607           JUNCTION        2.21          0.680        0.000
  YS02001610           JUNCTION        2.23          0.680        0.000
  YS02001613           JUNCTION        2.21          0.685        0.015
  YS02001616           JUNCTION        2.18          0.610        0.000
  YS02001619           JUNCTION        2.17          0.610        0.000
  YS02001622           JUNCTION        2.18          0.585        0.035
  YS02001625           JUNCTION        2.31          0.780        0.000
  YS02001629           JUNCTION        2.15          0.470        0.000
  YS02001633           JUNCTION        2.37          1.060        0.000
  YS02001641           JUNCTION        2.37          0.970        0.130
  YS02001644           JUNCTION        2.37          0.920        0.000
  YS02001647           JUNCTION        2.22          0.791        0.109
  YS02001649           JUNCTION        2.35          1.050        0.000
  YS02001652           JUNCTION        2.19          1.121        0.009
  YS02001655           JUNCTION        2.05          1.200        0.000
  YS02001658           JUNCTION        1.84          1.300        0.000
  YS02001661           JUNCTION        1.34          1.370        0.020
  YS02001664           JUNCTION        0.90          1.310        0.000
  YS02001745           JUNCTION        0.93          1.350        0.000
  YS02001748           JUNCTION        1.77          1.190        0.000
  YS02001751           JUNCTION        2.00          1.198        0.002
  YS02001754           JUNCTION        2.14          1.136        0.014
  YS02001757           JUNCTION        2.43          1.210        0.000
  YS02001759           JUNCTION        2.35          1.210        0.000
  YS02001762           JUNCTION        2.32          1.150        0.000
  YS02001765           JUNCTION        2.29          1.083        0.017
  YS02001767           JUNCTION        2.26          1.030        0.000
  YS02001770           JUNCTION        2.24          0.920        0.000
  YS02001774           JUNCTION        2.31          1.050        0.000
  YS02001779           JUNCTION        2.13          0.680        0.000
  YS02001783           JUNCTION        1.95          0.681        0.919
  YS02001784           JUNCTION        1.94          0.512        0.978
  YS02001786           JUNCTION        1.87          0.189        1.241
  YS02001882           JUNCTION        1.92          0.830        0.000
  YS02001884           JUNCTION        1.93          0.870        0.000
  YS02001887           JUNCTION        1.95          0.950        0.000
  YS02001890           JUNCTION        1.96          0.760        0.000
  YS02001895           JUNCTION        1.91          0.627        0.123
  YS02001898           JUNCTION        1.91          0.562        0.178
  YS02001901           JUNCTION        1.94          0.699        0.171
  YS02001904           JUNCTION        1.93          0.656        0.194
  YS02001907           JUNCTION        2.05          0.950        0.000
  YS02001910           JUNCTION        1.97          1.015        0.085
  YS02001915           JUNCTION        1.92          1.000        0.000
  YS02001918           JUNCTION        1.87          0.810        0.000
  YS02001920           JUNCTION        1.88          1.140        0.000
  YS02001923           JUNCTION        1.48          0.820        0.000
  YS02001926           JUNCTION        1.56          0.900        0.000
  YS02001929           JUNCTION        1.20          0.780        0.000
  YS02006553           JUNCTION        2.06          1.135        0.055
  YS02006556           JUNCTION        2.01          1.292        0.058
  YS02006558           JUNCTION        2.00          1.400        0.000
  YS02006561           JUNCTION        1.84          0.430        0.720
  YS02163301           JUNCTION        2.35          0.954        0.076
  YS02163601           JUNCTION        2.41          1.080        0.000
  YS02164001           JUNCTION        2.36          0.982        0.118
  YSB1154              JUNCTION        2.11          1.400        0.000
  YSB1171              JUNCTION        2.11          1.100        0.000
  YSB1174              JUNCTION        2.09          1.250        0.000
  YSB6556              JUNCTION        2.07          1.100        0.000
  
  
  *********************
  Node Flooding Summary
  *********************
  
  Flooding refers to all water that overflows a node, whether it ponds or not.
  --------------------------------------------------------------------------
                                                             Total   Maximum
                                 Maximum   Time of Max       Flood    Ponded
                        Hours       Rate    Occurrence      Volume     Depth
  Node                 Flooded       LPS   days hr:min    10^6 ltr    Meters
  --------------------------------------------------------------------------
  HS02004479              0.01     22.73      0  01:10       0.000     0.000
  HS02004480              0.01     67.39      0  01:10       0.000     0.000
  HS02004770              1.92  30252.61      0  01:49      41.122     0.000
  HS02004777              0.01     41.95      0  01:09       0.000     0.000
  HS02004785              0.01    151.99      0  01:09       0.000     0.000
  HS02004788              0.70   9091.30      0  01:49       6.779     0.000
  HS02004792              1.89  36991.57      0  01:49      48.247     0.000
  HS02004799              1.77   6133.66      0  01:49       6.463     0.000
  HS02004807              1.57   7733.89      0  01:49       8.667     0.000
  HS02004817              0.01     16.39      0  01:13       0.000     0.000
  HS02004824              1.42  11655.04      0  01:50      13.117     0.000
  HS02004830              0.41    176.16      0  01:50       0.232     0.000
  HS02004837              0.34   5084.98      0  01:49       2.422     0.000
  HS02004842              1.41   2354.69      0  01:54       6.950     0.000
  HS02004848              0.67   9555.99      0  01:50       8.054     0.000
  HS02004852              0.01     87.10      0  01:12       0.000     0.000
  HS02004856              0.84   3067.60      0  01:49       2.701     0.000
  HS02004862              1.34   6289.81      0  01:50       9.541     0.000
  HS02004870              0.44   3178.43      0  01:49       1.648     0.000
  HS02004876              0.69   4232.16      0  01:49       3.485     0.000
  HS02004881              0.30   1878.96      0  01:49       0.784     0.000
  HS02004901              1.16   6292.16      0  01:49       5.555     0.000
  WS02006109              1.02    450.17      0  01:44       0.907     0.000
  WS02006110              0.01    229.75      0  01:08       0.000     0.000
  WS02006112              0.36   3931.59      0  01:49       1.941     0.000
  WS02006228              0.01     21.92      0  01:09       0.000     0.000
  WS02006229              0.01     27.73      0  01:10       0.000     0.000
  WS02006230              2.00    572.65      0  01:29       3.821     0.000
  WS02006231              0.01     97.00      0  01:08       0.000     0.000
  WS02006232              0.26    351.18      0  01:08       0.001     0.000
  WS02006234              2.04    137.05      0  01:09       0.917     0.000
  WS02006235              0.01    101.66      0  01:09       0.001     0.000
  WS02006238              0.01     76.51      0  01:09       0.000     0.000
  WS02006239              0.01    388.02      0  01:09       0.001     0.000
  WS02006240              0.01    847.41      0  01:10       0.003     0.000
  WS02006242              2.07    889.10      0  01:10       1.029     0.000
  WS02006243              0.01    611.79      0  01:10       0.009     0.000
  WS02006245              0.01    228.72      0  01:10       0.001     0.000
  WS02006247              0.01    189.79      0  01:10       0.000     0.000
  WS02006248              2.16    382.88      0  01:12       2.576     0.000
  WS02006249              2.82   1350.24      0  02:08      10.058     0.000
  WS02006251              0.54    113.54      0  01:49       0.126     0.000
  WS02006252              1.91    820.21      0  01:39       4.685     0.000
  WS02006256              2.26    293.19      0  00:00       1.646     0.000
  WS02006280              0.01     30.22      0  01:10       0.000     0.000
  WS02006284              0.01    238.61      0  01:09       0.000     0.000
  WS02006287              0.01     88.65      0  01:10       0.000     0.000
  YS02001580              0.01    103.84      0  01:10       0.000     0.000
  YS02001583              0.01    153.93      0  01:10       0.000     0.000
  YS02001586              2.01  14438.18      0  01:50      20.422     0.000
  YS02001590              0.01    102.52      0  01:08       0.000     0.000
  YS02001600              0.01      6.26      0  01:09       0.000     0.000
  YS02001601              2.09  22652.93      0  01:49      29.031     0.000
  YS02001602              2.06     62.30      0  01:24       0.451     0.000
  YS02001605              0.01     12.47      0  01:11       0.000     0.000
  YS02001607              0.01    263.13      0  01:11       0.001     0.000
  YS02001610              2.01    955.50      0  02:21       5.858     0.000
  YS02001616              0.14      4.50      0  01:11       0.000     0.000
  YS02001619              1.36  23845.26      0  01:50      26.248     0.000
  YS02001625              2.00   1505.26      0  02:23       9.430     0.000
  YS02001629              1.43    686.80      0  02:18       2.508     0.000
  YS02001633              0.79  14998.00      0  01:49      11.903     0.000
  YS02001644              1.79  16840.78      0  01:49      26.471     0.000
  YS02001649              0.89   2389.77      0  01:44       5.712     0.000
  YS02001655              0.59    303.22      0  01:44       0.602     0.000
  YS02001658              0.53     52.15      0  01:44       0.097     0.000
  YS02001664              0.52  11772.82      0  01:49       7.310     0.000
  YS02001745              0.27   5679.98      0  01:49       2.267     0.000
  YS02001748              0.36    769.23      0  01:45       0.857     0.000
  YS02001757              0.47    613.75      0  02:02       0.585     0.000
  YS02001759              0.54  10138.28      0  01:49       6.173     0.000
  YS02001762              0.04      1.33      0  01:37       0.000     0.000
  YS02001767              0.01     75.76      0  01:13       0.000     0.000
  YS02001770              1.19  17673.76      0  01:49      18.018     0.000
  YS02001774              0.01     25.79      0  01:13       0.000     0.000
  YS02001779              1.78    851.48      0  02:23       4.562     0.000
  YS02001882              0.01     11.81      0  01:11       0.000     0.000
  YS02001884              0.01      0.75      0  01:36       0.000     0.000
  YS02001887              0.57  10673.99      0  01:49       6.500     0.000
  YS02001890              1.61   1536.57      0  01:43       4.966     0.000
  YS02001907              1.83   4669.98      0  01:41      19.678     0.000
  YS02001915              1.06  15536.94      0  01:49      15.011     0.000
  YS02001918              0.70    459.73      0  01:45       0.991     0.000
  YS02001920              0.01     69.08      0  01:13       0.000     0.000
  YS02001923              0.01    283.43      0  01:13       0.001     0.000
  YS02001926              0.01    447.74      0  01:13       0.002     0.000
  YS02001929              0.53   6521.76      0  01:50       4.421     0.000
  YS02006558              0.51  14611.48      0  01:49       8.730     0.000
  YS02163601              0.01      0.79      0  01:35       0.000     0.000
  YSB1154                 0.88   6624.83      0  01:49       5.257     0.000
  YSB1171                 1.82   1630.35      0  01:35       8.189     0.000
  YSB1174                 0.70   5233.82      0  01:49       3.531     0.000
  YSB6556                 0.97     85.86      0  02:15       0.284     0.000
  CC-storage              0.82    361.34      0  02:12       0.655     0.000
  
  
  **********************
  Storage Volume Summary
  **********************
  
  ------------------------------------------------------------------------------------------------
                         Average    Avg   Evap  Exfil     Maximum    Max    Time of Max    Maximum
                          Volume   Pcnt   Pcnt   Pcnt      Volume   Pcnt     Occurrence    Outflow
  Storage Unit           1000 m³   Full   Loss   Loss     1000 m³   Full    days hr:min        LPS
  ------------------------------------------------------------------------------------------------
  CC-storage               4.760   74.3    0.0    0.0       6.410  100.0       0  02:12    1783.54
  JK-storage               0.108   37.1    0.0    0.0       0.213   73.1       0  02:23    2300.00
  
  
  ***********************
  Outfall Loading Summary
  ***********************
  
  -----------------------------------------------------------
                         Flow       Avg       Max       Total
                         Freq      Flow      Flow      Volume
  Outfall Node           Pcnt       LPS       LPS    10^6 ltr
  -----------------------------------------------------------
  CC-1                  81.53    683.00    683.00       6.861
  CC-2                  79.15    683.00    683.00       6.682
  JK-1                  54.27   1000.00   1000.00       6.663
  JK-2                   0.31   1000.00   1000.00       0.048
  WS02004402            95.17   1367.11   2427.41      16.010
  -----------------------------------------------------------
  System                62.08   4733.11   4793.41      36.264
  
  
  ********************
  Link Flow Summary
  ********************
  
  -----------------------------------------------------------------------------
                                 Maximum  Time of Max   Maximum    Max/    Max/
                                  |Flow|   Occurrence   |Veloc|    Full    Full
  Link                 Type          LPS  days hr:min     m/sec    Flow   Depth
  -----------------------------------------------------------------------------
  HS02004478WS02006287 CONDUIT   2502.52     0  01:09      3.01    0.70    1.00
  HS02004479HS02004480 CONDUIT    511.34     0  01:12      0.73    0.49    1.00
  HS02004480HS02004478 CONDUIT   2350.10     0  01:10      3.36    9.90    1.00
  HS02004770HS02004777 CONDUIT    849.18     0  01:09      1.21    1.55    1.00
  HS02004777HS02004785 CONDUIT    852.69     0  01:09      1.37    1.05    1.00
  HS02004785HS02004788 CONDUIT    826.88     0  01:09      1.36    6.23    1.00
  HS02004788HS02004792 CONDUIT   1089.71     0  02:08      1.56    0.72    1.00
  HS02004792HS02004799 CONDUIT   1770.34     0  01:10      2.53    1.08    1.00
  HS02004799HS02004480 CONDUIT   1953.95     0  01:10      2.79    2.47    1.00
  HS02004802HS02004478 CONDUIT   1240.17     0  02:50      1.77    1.09    1.00
  HS02004807HS02004802 CONDUIT   1239.70     0  02:47      1.77    2.37    1.00
  HS02004817HS02004807 CONDUIT   1197.05     0  02:23      1.71    0.71    1.00
  HS02004817HS02004824 CONDUIT   1196.43     0  01:27      1.71    0.54    1.00
  HS02004824HS02004830 CONDUIT    872.23     0  01:56      1.25    1.14    1.00
  HS02004830HS02004837 CONDUIT   1048.24     0  01:55      1.50    1.04    1.00
  HS02004837HS02004842 CONDUIT   1084.84     0  01:55      1.55    0.65    1.00
  HS02004842HS02004848 CONDUIT   1269.84     0  02:10      1.81    0.74    1.00
  HS02004848HS02004852 CONDUIT   1092.08     0  01:11      1.69    1.23    1.00
  HS02004852HS02004856 CONDUIT   1084.75     0  01:12      1.55    1.24    1.00
  HS02004856HS02004862 CONDUIT   1152.67     0  01:12      1.73    1.15    1.00
  HS02004862HS02004870 CONDUIT   1271.05     0  01:12      1.96    1.37    1.00
  HS02004870HS02004876 CONDUIT   1292.34     0  02:45      1.97    0.86    1.00
  HS02004876HS02004881 CONDUIT   1518.42     0  02:41      2.31   16.15    1.00
  HS02004881HS02006253 CONDUIT   1742.42     0  02:14      2.96    0.34    1.00
  HS02004901HS02004770 CONDUIT    469.86     0  02:02      0.67    1.00    1.00
  WS02004401WS02004402 CONDUIT   2427.41     0  01:43      3.17    2.91    0.94
  WS02006109WS02006110 CONDUIT   1366.75     0  01:10      2.72    2.63    1.00
  WS02006110WS02006113 CONDUIT   1369.34     0  01:10      2.72    1.25    1.00
  WS02006111WS02006112 CONDUIT   1347.83     0  01:10      2.68    0.64    1.00
  WS02006112WS02006115 CONDUIT   2427.27     0  01:43      3.09    1.43    1.00
  WS02006113WS02006111 CONDUIT   1371.50     0  01:10      2.85    1.64    1.00
  WS02006115WS02006116 CONDUIT   2427.70     0  01:44      3.09    3.12    1.00
  WS02006116WS02004401 CONDUIT   2427.44     0  01:43      3.09    3.35    1.00
  WS02006228WS02006109 CONDUIT   1363.64     0  01:10      2.71    5.96    1.00
  WS02006229WS02006228 CONDUIT   1361.57     0  01:10      2.71    4.51    1.00
  WS02006230WS02006229 CONDUIT   1014.95     0  02:16      2.64   22.59    1.00
  WS02006231WS02006230 CONDUIT    744.95     0  01:09      1.94   11.30    1.00
  WS02006232WS02006231 CONDUIT    744.44     0  01:09      1.93    1.56    1.00
  WS02006234WS02006232 CONDUIT    744.08     0  01:09      2.17    1.51    1.00
  WS02006235WS02006234 CONDUIT    765.47     0  01:09      2.03    8.08    1.00
  WS02006238WS02006235 CONDUIT    725.14     0  01:09      2.25    1.62    1.00
  WS02006239WS02006238 CONDUIT    710.76     0  01:09      2.39    2.27    1.00
  WS02006240WS02006239 CONDUIT    739.05     0  01:10      2.07    2.33    1.00
  WS02006242WS02006240 CONDUIT    578.16     0  01:10      1.51    2.30    1.00
  WS02006243WS02006242 CONDUIT    415.24     0  04:00      1.34    0.89    1.00
  WS02006245WS02006243 CONDUIT    427.20     0  01:10      1.39    1.26    1.00
  WS02006247WS02006245 CONDUIT    477.88     0  01:10      1.37    3.79    1.00
  WS02006248WS02006247 CONDUIT    485.53     0  01:10      1.38    1.06    1.00
  WS02006249WS02006248 CONDUIT    511.66     0  01:10      1.38    2.80    1.00
  WS02006251WS02006249 CONDUIT   1411.09     0  01:56      3.67    4.07    1.00
  WS02006252WS02006251 CONDUIT    420.21     0  01:39     24.89    1.54    1.00
  WS02006253WS02006251 CONDUIT   1944.81     0  01:49      5.05    5.83    1.00
  WS02006256WS02006235 CONDUIT    288.93     0  00:00      4.23    3.06    1.00
  WS02006280WS02006229 CONDUIT   2327.28     0  02:50      5.32    0.50    1.00
  WS02006284WS02006280 CONDUIT   2326.21     0  02:52      3.36    0.97    1.00
  WS02006287WS02006284 CONDUIT   2380.29     0  01:09      3.08    1.10    1.00
  YS02001580YS02001583 CONDUIT    176.89     0  01:10      0.93    0.69    1.00
  YS02001583YS02001586 CONDUIT    200.63     0  01:09      0.93    0.30    1.00
  YS02001586YS02001590 CONDUIT    318.12     0  01:14      1.33    0.56    1.00
  YS02001590YS02001593 CONDUIT    318.05     0  01:27      1.12    2.00    1.00
  YS02001593YS02001596 CONDUIT    318.12     0  01:23      1.73    0.50    1.00
  YS02001596YS02001600 CONDUIT    318.15     0  02:30      1.29    0.62    1.00
  YS02001600YS02001601 CONDUIT    318.26     0  01:14      1.13    0.55    1.00
  YS02001601YS02001602 CONDUIT    607.79     0  01:10      2.15    2.20    1.00
  YS02001602YS02001605 CONDUIT    607.75     0  01:10      2.15   12.86    1.00
  YS02001605YS02001607 CONDUIT    607.63     0  01:10      2.15    3.33    1.00
  YS02001607YS02001610 CONDUIT    590.80     0  01:10      0.88    0.56    1.00
  YS02001610YS02001613 CONDUIT    619.37     0  02:21      0.82    0.71    1.00
  YS02001613YS02001616 CONDUIT    619.33     0  01:35      0.86    0.53    1.00
  YS02001616YS02001619 CONDUIT    619.37     0  02:21      0.90    1.08    1.00
  YS02001619YS02001622 CONDUIT   1053.99     0  02:23      1.88    1.55    1.00
  YS02001622YS02001625 CONDUIT   1053.70     0  02:23      1.34    0.56    1.00
  YS02001625YS02001629 CONDUIT    873.98     0  01:12      1.11    0.42    1.00
  YS02001629YS02163301 CONDUIT   1138.95     0  02:18      1.45    1.40    1.00
  YS02001633YS02163601 CONDUIT   1387.71     0  01:12      1.77    1.46    1.00
  YS02001641YS02001644 CONDUIT   1384.10     0  01:12      1.76    4.47    1.00
  YS02001644YS02001647 CONDUIT   1867.01     0  01:12      2.38    1.10    1.00
  YS02001647YS02001649 CONDUIT   1881.90     0  01:12      2.40    0.99    1.00
  YS02001649YS02001757 CONDUIT   2193.65     0  01:13      2.79    1.33    1.00
  YS02001652YS02001649 CONDUIT   2429.29     0  01:42      3.09    1.20    1.00
  YS02001655YS02001652 CONDUIT   2429.25     0  01:45      3.09    1.18    1.00
  YS02001658YS02001655 CONDUIT   2731.29     0  02:00      3.48    1.16    1.00
  YS02001661YS02001658 CONDUIT   2783.73     0  01:44      3.54    1.09    1.00
  YS02001664YS02001661 CONDUIT   2783.77     0  01:43      3.54    0.87    1.00
  YS02001745YS02001748 CONDUIT   3122.08     0  01:51      3.98    1.20    1.00
  YS02001748YS02001751 CONDUIT   2353.96     0  01:42      3.00    1.19    1.00
  YS02001751YS02001754 CONDUIT   2354.21     0  01:42      3.00    1.13    1.00
  YS02001754YS02001757 CONDUIT   2354.19     0  01:42      3.00    0.95    1.00
  YS02001757CaochengTiaoxuchi CONDUIT   3456.82     0  01:17      4.47    1.50    1.00
  YS02001759YS02001757 CONDUIT   1509.72     0  01:38      1.92    1.07    1.00
  YS02001762YS02001759 CONDUIT    794.25     0  01:17      1.01    0.92    1.00
  YS02001765YS02001762 CONDUIT    792.93     0  01:17      1.01    0.74    1.00
  YS02001767YS02001765 CONDUIT    794.27     0  01:17      1.01    1.00    1.00
  YS02001770YS02001767 CONDUIT    794.69     0  01:17      1.02    3.15    1.00
  YS02001774YS02001770 CONDUIT    852.09     0  02:23      1.08    0.54    1.00
  YS02001779YS02001774 CONDUIT    851.76     0  02:23      1.08    0.43    1.00
  YS02001783YS02001784 CONDUIT   1321.38     0  01:41      2.63    1.82    1.00
  YS02001784YS02001785 CONDUIT   1322.62     0  01:42      2.63    3.08    1.00
  YS02001786YS02001788 CONDUIT   1322.68     0  01:42      2.74    2.55    0.92
  YS02001788YS02001790 CONDUIT   1328.54     0  01:39      2.89    0.98    0.87
  YS02001790YS02001791 CONDUIT   1373.78     0  01:38      3.53    1.49    0.73
  YS02001791YS02001793 CONDUIT   1358.84     0  01:39      6.90    0.58    0.45
  YS02001793JiankangQianchi CONDUIT   1357.46     0  01:39      2.70    0.11    0.65
  YS02001882YS02001884 CONDUIT    109.76     0  01:10      0.44    0.13    1.00
  YS02001884YS02001887 CONDUIT    197.83     0  01:10      0.39    0.26    1.00
  YS02001887YS02001890 CONDUIT   2052.03     0  01:47      2.61    3.51    1.00
  YS02001890YS02001895 CONDUIT    548.78     0  01:11      0.70    0.26    1.00
  YS02001895YS02001898 CONDUIT    558.28     0  01:11      0.76    0.97    1.00
  YS02001898YS02001901 CONDUIT    571.08     0  01:11      0.73    0.37    1.00
  YS02001901YS02001904 CONDUIT    575.33     0  01:11      0.73    0.89    1.00
  YS02001904YS02001907 CONDUIT    578.74     0  01:11      0.74    0.20    1.00
  YS02001907YS02006553 CONDUIT   2160.60     0  01:42      2.40    2.54    1.00
  YS02001910YS02001907 CONDUIT   1993.02     0  02:18      2.54    1.12    1.00
  YS02001915YS02001910 CONDUIT   1993.20     0  02:23      2.54    0.99    1.00
  YS02001918YS02001915 CONDUIT   1221.69     0  02:09      1.56    0.67    1.00
  YS02001920YS02001918 CONDUIT   1681.67     0  01:44      2.14    1.63    1.00
  YS02001923YS02001920 CONDUIT   1678.98     0  01:41      2.14    0.75    1.00
  YS02001926YS02001923 CONDUIT   1678.96     0  01:43      2.14    2.40    1.00
  YS02001929YS02001926 CONDUIT   1678.67     0  01:44      2.14    0.80    1.00
  YS02006553YS02006556 CONDUIT   2160.53     0  01:44      2.75    1.85    1.00
  YS02006556YS02006558 CONDUIT   2160.66     0  01:41      2.75    1.71    1.00
  YS02006558YS02006561 CONDUIT   1321.37     0  01:41      4.67    2.92    1.00
  YS02006561YS02001783 CONDUIT   1321.64     0  01:44      2.63    0.68    1.00
  YS02163301YS02001633 CONDUIT   1138.84     0  02:18      1.45    1.07    1.00
  YS02163601YS02164001 CONDUIT   1386.62     0  01:12      1.77    1.23    1.00
  YS02164001YS02001641 CONDUIT   1384.55     0  01:12      1.76    1.89    1.00
  YSB1154YSB6556       CONDUIT    725.69     0  02:17      1.89    1.30    1.00
  YSB1171HS02004479    CONDUIT    512.06     0  01:12      1.02    0.34    1.00
  YSB1174YSB1171       CONDUIT    750.69     0  02:06      1.95    1.15    1.00
  YSB6556YSB1171       CONDUIT    639.84     0  01:41      1.66    0.66    1.00
  CC-R1                PUMP       683.00     0  00:00              1.00
  CC-R2                PUMP       683.00     0  00:00              1.00
  CC-S1                PUMP       200.00     0  00:00              1.00
  CC-S2                PUMP       200.00     0  00:00              1.00
  JK-R1                PUMP      1000.00     0  00:00              1.00
  JK-R2                PUMP      1000.00     0  00:00              1.00
  JK-S                 PUMP       300.00     0  00:00              1.00
  
  
  ***************************
  Flow Classification Summary
  ***************************
  
  -------------------------------------------------------------------------------------
                      Adjusted    ---------- Fraction of Time in Flow Class ---------- 
                       /Actual         Up    Down  Sub   Sup   Up    Down  Norm  Inlet 
  Conduit               Length    Dry  Dry   Dry   Crit  Crit  Crit  Crit  Ltd   Ctrl  
  -------------------------------------------------------------------------------------
  HS02004478WS02006287    1.00   0.27  0.00  0.00  0.54  0.19  0.00  0.00  0.06  0.00
  HS02004479HS02004480    1.00   0.07  0.00  0.00  0.93  0.00  0.00  0.00  0.18  0.00
  HS02004480HS02004478    1.00   0.25  0.00  0.00  0.52  0.00  0.00  0.23  0.00  0.00
  HS02004770HS02004777    1.00   0.00  0.25  0.00  0.75  0.00  0.00  0.00  0.01  0.00
  HS02004777HS02004785    1.00   0.00  0.00  0.00  1.00  0.00  0.00  0.00  0.18  0.00
  HS02004785HS02004788    1.00   0.00  0.00  0.00  1.00  0.00  0.00  0.00  0.00  0.00
  HS02004788HS02004792    1.00   0.00  0.00  0.00  0.98  0.02  0.00  0.00  0.45  0.00
  HS02004792HS02004799    1.00   0.00  0.00  0.00  0.98  0.02  0.00  0.00  0.43  0.00
  HS02004799HS02004480    1.00   0.01  0.07  0.00  0.73  0.00  0.20  0.00  0.00  0.00
  HS02004802HS02004478    1.00   0.25  0.01  0.00  0.74  0.00  0.00  0.00  0.01  0.00
  HS02004807HS02004802    1.00   0.25  0.00  0.00  0.73  0.00  0.00  0.02  0.00  0.00
  HS02004817HS02004807    1.00   0.00  0.25  0.00  0.75  0.00  0.00  0.00  0.01  0.00
  HS02004817HS02004824    1.00   0.00  0.00  0.00  1.00  0.00  0.00  0.00  0.42  0.00
  HS02004824HS02004830    1.00   0.00  0.00  0.00  1.00  0.00  0.00  0.00  0.00  0.00
  HS02004830HS02004837    1.00   0.00  0.00  0.00  1.00  0.00  0.00  0.00  0.43  0.00
  HS02004837HS02004842    1.00   0.00  0.00  0.00  0.99  0.01  0.00  0.00  0.21  0.00
  HS02004842HS02004848    1.00   0.00  0.25  0.00  0.75  0.00  0.00  0.00  0.01  0.00
  HS02004848HS02004852    1.00   0.25  0.00  0.00  0.75  0.00  0.00  0.00  0.20  0.00
  HS02004852HS02004856    1.00   0.25  0.01  0.00  0.74  0.00  0.00  0.00  0.16  0.00
  HS02004856HS02004862    1.00   0.00  0.27  0.00  0.73  0.00  0.00  0.00  0.21  0.00
  HS02004862HS02004870    1.00   0.00  0.00  0.00  1.00  0.00  0.00  0.00  0.02  0.00
  HS02004870HS02004876    1.00   0.01  0.00  0.00  0.97  0.02  0.00  0.00  0.38  0.00
  HS02004876HS02004881    1.00   0.04  0.00  0.00  0.82  0.14  0.00  0.00  0.00  0.00
  HS02004881HS02006253    1.00   0.07  0.04  0.00  0.71  0.02  0.00  0.17  0.21  0.00
  HS02004901HS02004770    1.00   0.25  0.00  0.00  0.75  0.00  0.00  0.00  0.01  0.00
  WS02004401WS02004402    1.00   0.05  0.00  0.00  0.95  0.00  0.00  0.00  0.00  0.00
  WS02006109WS02006110    1.00   0.00  0.02  0.00  0.96  0.00  0.02  0.00  0.00  0.00
  WS02006110WS02006113    1.00   0.02  0.02  0.00  0.96  0.00  0.00  0.00  0.00  0.00
  WS02006111WS02006112    1.00   0.04  0.00  0.00  0.95  0.00  0.00  0.00  0.36  0.00
  WS02006112WS02006115    1.00   0.04  0.01  0.00  0.94  0.00  0.01  0.00  0.00  0.00
  WS02006113WS02006111    1.00   0.04  0.00  0.00  0.53  0.44  0.00  0.00  0.06  0.00
  WS02006115WS02006116    1.00   0.05  0.00  0.00  0.78  0.00  0.00  0.18  0.00  0.00
  WS02006116WS02004401    1.00   0.05  0.00  0.00  0.95  0.00  0.00  0.00  0.00  0.00
  WS02006228WS02006109    1.00   0.00  0.00  0.00  1.00  0.00  0.00  0.00  0.01  0.00
  WS02006229WS02006228    1.00   0.00  0.00  0.00  0.98  0.00  0.00  0.02  0.00  0.00
  WS02006230WS02006229    1.00   0.00  0.00  0.00  0.97  0.00  0.00  0.03  0.00  0.00
  WS02006231WS02006230    1.00   0.00  0.00  0.00  0.72  0.00  0.27  0.00  0.00  0.00
  WS02006232WS02006231    1.00   0.00  0.00  0.00  0.99  0.00  0.01  0.00  0.00  0.00
  WS02006234WS02006232    1.00   0.00  0.00  0.00  1.00  0.00  0.00  0.00  0.02  0.00
  WS02006235WS02006234    1.00   0.00  0.00  0.00  0.93  0.00  0.07  0.00  0.00  0.00
  WS02006238WS02006235    1.00   0.00  0.00  0.00  1.00  0.00  0.00  0.00  0.00  0.00
  WS02006239WS02006238    1.00   0.00  0.00  0.00  1.00  0.00  0.00  0.00  0.13  0.00
  WS02006240WS02006239    1.00   0.00  0.00  0.00  0.83  0.00  0.00  0.16  0.01  0.00
  WS02006242WS02006240    1.00   0.01  0.00  0.00  0.98  0.00  0.01  0.00  0.00  0.00
  WS02006243WS02006242    1.00   0.01  0.00  0.00  0.98  0.00  0.00  0.02  0.21  0.00
  WS02006245WS02006243    1.00   0.00  0.00  0.00  0.90  0.00  0.00  0.09  0.00  0.00
  WS02006247WS02006245    1.00   0.00  0.00  0.00  0.98  0.00  0.00  0.02  0.00  0.00
  WS02006248WS02006247    1.00   0.00  0.00  0.00  0.98  0.00  0.00  0.02  0.15  0.00
  WS02006249WS02006248    1.00   0.00  0.00  0.00  0.78  0.00  0.22  0.00  0.00  0.00
  WS02006251WS02006249    1.00   0.00  0.00  0.00  1.00  0.00  0.00  0.00  0.21  0.00
  WS02006252WS02006251    1.00   0.00  0.26  0.00  0.71  0.00  0.03  0.00  0.00  0.00
  WS02006253WS02006251    1.00   0.00  0.00  0.00  0.92  0.00  0.07  0.00  0.00  0.00
  WS02006256WS02006235    1.00   0.00  0.00  0.00  1.00  0.00  0.00  0.00  0.00  0.00
  WS02006280WS02006229    1.00   0.27  0.00  0.00  0.53  0.05  0.00  0.15  0.00  0.00
  WS02006284WS02006280    1.00   0.27  0.00  0.00  0.51  0.00  0.00  0.21  0.00  0.00
  WS02006287WS02006284    1.00   0.21  0.06  0.00  0.51  0.20  0.00  0.02  0.19  0.00
  YS02001580YS02001583    1.00   0.29  0.00  0.00  0.71  0.00  0.00  0.00  0.16  0.00
  YS02001583YS02001586    1.00   0.25  0.03  0.00  0.71  0.00  0.00  0.00  0.17  0.00
  YS02001586YS02001590    1.00   0.25  0.00  0.00  0.73  0.01  0.00  0.01  0.16  0.00
  YS02001590YS02001593    1.00   0.25  0.00  0.00  0.57  0.00  0.18  0.00  0.00  0.00
  YS02001593YS02001596    1.00   0.26  0.00  0.00  0.59  0.01  0.00  0.15  0.02  0.00
  YS02001596YS02001600    1.00   0.26  0.00  0.00  0.65  0.01  0.00  0.08  0.04  0.00
  YS02001600YS02001601    1.00   0.25  0.01  0.00  0.74  0.00  0.00  0.00  0.02  0.00
  YS02001601YS02001602    1.00   0.25  0.00  0.00  0.75  0.00  0.00  0.00  0.00  0.00
  YS02001602YS02001605    1.00   0.25  0.00  0.00  0.74  0.00  0.00  0.00  0.00  0.00
  YS02001605YS02001607    1.00   0.26  0.00  0.00  0.74  0.00  0.00  0.00  0.00  0.00
  YS02001607YS02001610    1.00   0.26  0.00  0.00  0.74  0.00  0.00  0.00  0.00  0.00
  YS02001610YS02001613    1.00   0.25  0.00  0.00  0.75  0.00  0.00  0.00  0.00  0.00
  YS02001613YS02001616    1.00   0.25  0.00  0.00  0.75  0.00  0.00  0.00  0.00  0.00
  YS02001616YS02001619    1.00   0.25  0.00  0.00  0.75  0.00  0.00  0.00  0.00  0.00
  YS02001619YS02001622    1.00   0.25  0.00  0.00  0.74  0.01  0.00  0.00  0.00  0.00
  YS02001622YS02001625    1.00   0.25  0.00  0.00  0.74  0.01  0.00  0.00  0.01  0.00
  YS02001625YS02001629    1.00   0.25  0.03  0.00  0.65  0.00  0.07  0.00  0.00  0.00
  YS02001629YS02163301    1.00   0.26  0.01  0.00  0.74  0.00  0.00  0.00  0.00  0.00
  YS02001633YS02163601    1.00   0.00  0.01  0.00  0.99  0.00  0.00  0.00  0.25  0.00
  YS02001641YS02001644    1.00   0.00  0.01  0.00  0.99  0.00  0.00  0.00  0.00  0.00
  YS02001644YS02001647    1.00   0.00  0.27  0.00  0.73  0.00  0.00  0.00  0.00  0.00
  YS02001647YS02001649    1.00   0.00  0.26  0.00  0.73  0.00  0.00  0.00  0.05  0.00
  YS02001649YS02001757    1.00   0.00  0.00  0.00  1.00  0.00  0.00  0.00  0.27  0.00
  YS02001652YS02001649    1.00   0.00  0.00  0.00  0.98  0.02  0.00  0.00  0.24  0.00
  YS02001655YS02001652    1.00   0.00  0.00  0.00  0.70  0.00  0.00  0.30  0.03  0.00
  YS02001658YS02001655    1.00   0.00  0.26  0.00  0.67  0.07  0.00  0.00  0.08  0.00
  YS02001661YS02001658    1.00   0.26  0.00  0.00  0.62  0.13  0.00  0.00  0.14  0.00
  YS02001664YS02001661    1.00   0.25  0.00  0.00  0.70  0.05  0.00  0.00  0.27  0.00
  YS02001745YS02001748    1.00   0.00  0.00  0.00  0.61  0.00  0.00  0.38  0.07  0.00
  YS02001748YS02001751    1.00   0.00  0.00  0.00  0.94  0.06  0.00  0.00  0.31  0.00
  YS02001751YS02001754    1.00   0.00  0.00  0.00  0.70  0.00  0.00  0.30  0.03  0.00
  YS02001754YS02001757    1.00   0.00  0.00  0.00  0.99  0.01  0.00  0.00  0.28  0.00
  YS02001757CaochengTiaoxuchi    1.00   0.00  0.00  0.00  0.96  0.04  0.00  0.00  0.27  0.00
  YS02001759YS02001757    1.00   0.00  0.00  0.00  0.98  0.02  0.00  0.00  0.13  0.00
  YS02001762YS02001759    1.00   0.00  0.00  0.00  1.00  0.00  0.00  0.00  0.02  0.00
  YS02001765YS02001762    1.00   0.00  0.00  0.00  1.00  0.00  0.00  0.00  0.23  0.00
  YS02001767YS02001765    1.00   0.00  0.00  0.00  1.00  0.00  0.00  0.00  0.00  0.00
  YS02001770YS02001767    1.00   0.00  0.00  0.00  1.00  0.00  0.00  0.00  0.00  0.00
  YS02001774YS02001770    1.00   0.00  0.25  0.00  0.74  0.00  0.00  0.00  0.00  0.00
  YS02001779YS02001774    1.00   0.00  0.00  0.00  1.00  0.00  0.00  0.00  0.27  0.00
  YS02001783YS02001784    1.00   0.00  0.27  0.00  0.73  0.00  0.00  0.00  0.03  0.00
  YS02001784YS02001785    1.00   0.00  0.00  0.00  1.00  0.00  0.00  0.00  0.25  0.00
  YS02001786YS02001788    1.00   0.00  0.00  0.00  0.77  0.23  0.00  0.00  0.00  0.00
  YS02001788YS02001790    1.00   0.00  0.00  0.00  0.52  0.48  0.00  0.00  0.44  0.00
  YS02001790YS02001791    1.00   0.00  0.00  0.00  0.03  0.97  0.00  0.00  0.18  0.00
  YS02001791YS02001793    1.00   0.00  0.00  0.00  0.00  1.00  0.00  0.00  0.04  0.00
  YS02001793JiankangQianchi    1.00   0.00  0.00  0.00  0.60  0.39  0.00  0.00  0.89  0.00
  YS02001882YS02001884    1.00   0.26  0.00  0.00  0.74  0.00  0.00  0.00  0.00  0.00
  YS02001884YS02001887    1.00   0.12  0.11  0.00  0.77  0.00  0.00  0.00  0.00  0.00
  YS02001887YS02001890    1.00   0.00  0.00  0.00  0.94  0.00  0.06  0.00  0.00  0.00
  YS02001890YS02001895    1.00   0.01  0.26  0.00  0.74  0.00  0.00  0.00  0.00  0.00
  YS02001895YS02001898    1.00   0.26  0.00  0.00  0.72  0.00  0.01  0.00  0.00  0.00
  YS02001898YS02001901    1.00   0.27  0.00  0.00  0.73  0.00  0.00  0.00  0.00  0.00
  YS02001901YS02001904    1.00   0.27  0.00  0.00  0.73  0.00  0.00  0.00  0.00  0.00
  YS02001904YS02001907    1.00   0.01  0.26  0.00  0.73  0.00  0.00  0.00  0.00  0.00
  YS02001907YS02006553    1.00   0.01  0.04  0.00  0.95  0.00  0.00  0.00  0.01  0.00
  YS02001910YS02001907    1.00   0.00  0.00  0.00  0.94  0.01  0.00  0.05  0.20  0.00
  YS02001915YS02001910    1.00   0.00  0.00  0.00  0.96  0.04  0.00  0.00  0.21  0.00
  YS02001918YS02001915    1.00   0.00  0.01  0.00  0.96  0.03  0.00  0.00  0.22  0.00
  YS02001920YS02001918    1.00   0.00  0.01  0.00  0.99  0.00  0.00  0.00  0.00  0.00
  YS02001923YS02001920    1.00   0.00  0.00  0.00  1.00  0.00  0.00  0.00  0.50  0.00
  YS02001926YS02001923    1.00   0.00  0.15  0.00  0.48  0.00  0.37  0.00  0.00  0.00
  YS02001929YS02001926    1.00   0.00  0.25  0.00  0.74  0.01  0.00  0.00  0.27  0.00
  YS02006553YS02006556    1.00   0.03  0.00  0.00  0.97  0.00  0.00  0.00  0.06  0.00
  YS02006556YS02006558    1.00   0.00  0.01  0.00  0.99  0.00  0.00  0.00  0.00  0.00
  YS02006558YS02006561    1.00   0.27  0.00  0.00  0.48  0.25  0.00  0.00  0.19  0.00
  YS02006561YS02001783    1.00   0.27  0.00  0.00  0.51  0.22  0.00  0.00  0.18  0.00
  YS02163301YS02001633    1.00   0.00  0.26  0.00  0.74  0.00  0.00  0.00  0.00  0.00
  YS02163601YS02164001    1.00   0.00  0.16  0.00  0.84  0.00  0.00  0.00  0.00  0.00
  YS02164001YS02001641    1.00   0.02  0.15  0.00  0.84  0.00  0.00  0.00  0.10  0.00
  YSB1154YSB6556          1.00   0.25  0.00  0.00  0.75  0.00  0.00  0.00  0.01  0.00
  YSB1171HS02004479       1.00   0.08  0.00  0.00  0.89  0.00  0.00  0.03  0.16  0.00
  YSB1174YSB1171          1.00   0.10  0.09  0.00  0.81  0.00  0.00  0.00  0.00  0.00
  YSB6556YSB1171          1.00   0.08  0.17  0.00  0.75  0.00  0.00  0.00  0.00  0.00
  
  
  *************************
  Conduit Surcharge Summary
  *************************
  
  ----------------------------------------------------------------------------
                                                           Hours        Hours 
                         --------- Hours Full --------   Above Full   Capacity
  Conduit                Both Ends  Upstream  Dnstream   Normal Flow   Limited
  ----------------------------------------------------------------------------
  HS02004478WS02006287        1.93      1.93      2.00      0.01         0.01
  HS02004479HS02004480        2.05      2.05      2.06      0.01         0.01
  HS02004480HS02004478        1.99      2.04      1.99      2.44         1.99
  HS02004770HS02004777        1.99      1.99      2.00      0.06         0.04
  HS02004777HS02004785        1.96      1.96      2.00      0.01         0.01
  HS02004785HS02004788        1.95      1.96      1.95      2.00         0.81
  HS02004788HS02004792        1.95      1.95      2.02      0.01         0.01
  HS02004792HS02004799        2.02      2.02      2.08      0.01         0.02
  HS02004799HS02004480        2.04      2.04      2.08      2.10         0.01
  HS02004802HS02004478        1.99      1.99      2.05      1.62         0.01
  HS02004807HS02004802        2.03      2.03      2.04      1.81         1.81
  HS02004817HS02004807        2.03      2.03      2.25      0.01         0.01
  HS02004817HS02004824        1.95      1.95      2.25      0.01         0.01
  HS02004824HS02004830        1.93      1.93      1.95      0.48         0.49
  HS02004830HS02004837        1.90      1.90      1.93      0.35         0.35
  HS02004837HS02004842        1.90      1.90      1.98      0.01         0.01
  HS02004842HS02004848        1.88      1.88      1.98      0.01         0.01
  HS02004848HS02004852        1.88      1.88      1.89      0.03         0.05
  HS02004852HS02004856        1.89      1.89      1.91      0.68         0.65
  HS02004856HS02004862        1.88      1.88      1.90      0.01         0.01
  HS02004862HS02004870        1.90      1.90      1.91      0.62         0.61
  HS02004870HS02004876        1.91      1.91      1.96      0.01         0.01
  HS02004876HS02004881        1.94      1.96      1.94      2.38         1.94
  HS02004881HS02006253        1.94      1.94      2.82      0.01         0.01
  HS02004901HS02004770        1.98      1.98      1.99      0.97         0.01
  WS02004401WS02004402        0.01      0.74      0.01      2.32         0.01
  WS02006109WS02006110        2.87      2.87      2.87      2.87         0.01
  WS02006110WS02006113        2.07      2.07      2.87      1.54         0.01
  WS02006111WS02006112        1.99      1.99      2.85      0.01         0.01
  WS02006112WS02006115        1.83      1.83      2.35      1.11         0.01
  WS02006113WS02006111        2.00      2.08      2.00      2.32         1.98
  WS02006115WS02006116        1.21      1.85      1.21      2.34         1.21
  WS02006116WS02004401        0.74      1.75      0.74      2.40         0.74
  WS02006228WS02006109        2.87      2.87      2.87      2.98         2.87
  WS02006229WS02006228        2.87      2.87      2.87      2.91         2.87
  WS02006230WS02006229        2.87      2.87      2.88      3.19         0.76
  WS02006231WS02006230        2.75      2.75      2.86      3.09         2.09
  WS02006232WS02006231        2.86      2.86      2.86      0.04         0.26
  WS02006234WS02006232        2.85      2.85      2.86      0.03         0.01
  WS02006235WS02006234        2.84      2.84      2.84      3.01         2.07
  WS02006238WS02006235        2.84      2.84      2.84      0.02         0.62
  WS02006239WS02006238        2.84      2.84      2.84      2.67         0.54
  WS02006240WS02006239        2.83      2.83      2.84      2.67         0.54
  WS02006242WS02006240        2.83      2.83      2.83      2.72         2.07
  WS02006243WS02006242        2.83      2.83      2.83      0.01         0.01
  WS02006245WS02006243        2.83      2.83      2.83      0.59         0.52
  WS02006247WS02006245        2.83      2.83      2.83      2.90         0.70
  WS02006248WS02006247        2.83      2.83      2.83      0.01         0.01
  WS02006249WS02006248        2.83      2.83      2.83      0.78         0.01
  WS02006251WS02006249        2.83      2.83      2.83      2.96         2.82
  WS02006252WS02006251        2.96      2.96      2.96      2.47         1.39
  WS02006253WS02006251        2.83      2.83      2.85      2.11         0.01
  WS02006256WS02006235        3.06      3.07      3.50      0.27         0.01
  WS02006280WS02006229        2.05      2.05      2.08      0.01         0.01
  WS02006284WS02006280        2.01      2.01      2.04      0.01         0.01
  WS02006287WS02006284        1.98      1.98      2.02      1.85         1.85
  YS02001580YS02001583        2.08      2.08      2.09      0.01         0.01
  YS02001583YS02001586        2.08      2.08      2.15      0.01         0.01
  YS02001586YS02001590        2.15      2.15      2.20      0.01         0.01
  YS02001590YS02001593        2.20      2.20      2.21      2.24         0.01
  YS02001593YS02001596        2.20      2.20      2.27      0.01         0.01
  YS02001596YS02001600        2.29      2.29      2.35      0.01         0.01
  YS02001600YS02001601        2.39      2.39      2.55      0.01         0.01
  YS02001601YS02001602        2.50      2.50      2.57      2.31         0.01
  YS02001602YS02001605        2.48      2.48      2.50      2.94         0.01
  YS02001605YS02001607        2.46      2.48      2.48      2.42         2.37
  YS02001607YS02001610        2.21      2.21      2.23      0.01         0.01
  YS02001610YS02001613        2.21      2.21      2.23      0.01         0.01
  YS02001613YS02001616        2.18      2.18      2.21      0.01         0.01
  YS02001616YS02001619        2.17      2.17      2.18      1.37         1.28
  YS02001619YS02001622        2.17      2.17      2.18      2.12         2.02
  YS02001622YS02001625        2.18      2.18      2.31      0.01         0.01
  YS02001625YS02001629        2.15      2.15      2.31      0.01         0.01
  YS02001629YS02163301        2.33      2.33      2.35      0.99         0.04
  YS02001633YS02163601        2.37      2.37      2.41      0.06         0.07
  YS02001641YS02001644        2.37      2.37      2.37      2.61         2.31
  YS02001644YS02001647        2.22      2.22      2.37      0.03         0.01
  YS02001647YS02001649        2.22      2.22      2.35      0.01         0.01
  YS02001649YS02001757        2.35      2.35      2.43      0.09         0.05
  YS02001652YS02001649        2.21      2.21      2.35      0.68         0.68
  YS02001655YS02001652        2.05      2.05      2.19      0.67         0.66
  YS02001658YS02001655        1.84      1.84      2.05      0.60         0.60
  YS02001661YS02001658        1.34      1.34      1.84      0.56         0.56
  YS02001664YS02001661        0.90      0.90      1.61      0.01         0.01
  YS02001745YS02001748        0.93      0.93      1.77      0.33         0.33
  YS02001748YS02001751        1.84      1.84      2.00      0.43         0.43
  YS02001751YS02001754        2.00      2.00      2.14      0.41         0.41
  YS02001754YS02001757        2.18      2.18      2.43      0.01         0.01
  YS02001757CaochengTiaoxuchi        2.35      2.43      2.71      0.88         0.77
  YS02001759YS02001757        2.35      2.35      2.43      0.15         0.12
  YS02001762YS02001759        2.32      2.32      2.35      0.01         0.02
  YS02001765YS02001762        2.29      2.29      2.32      0.01         0.01
  YS02001767YS02001765        2.26      2.26      2.29      0.01         0.04
  YS02001770YS02001767        2.25      2.26      2.26      1.71         0.77
  YS02001774YS02001770        2.24      2.24      2.31      0.01         0.01
  YS02001779YS02001774        2.13      2.13      2.31      0.01         0.01
  YS02001783YS02001784        1.94      1.95      1.94      2.02         1.94
  YS02001784YS02001785        1.87      1.94      1.87      2.10         1.87
  YS02001786YS02001788        0.01      1.87      0.01      2.07         0.01
  YS02001790YS02001791        0.01      0.01      0.01      1.93         0.01
  YS02001793JiankangQianchi        0.01      0.01      3.71      0.01         0.01
  YS02001882YS02001884        1.92      1.92      1.93      0.01         0.01
  YS02001884YS02001887        1.94      1.94      1.95      0.01         0.01
  YS02001887YS02001890        1.96      1.96      1.97      1.47         0.01
  YS02001890YS02001895        1.91      1.91      1.97      0.01         0.01
  YS02001895YS02001898        1.91      1.91      1.91      0.01         0.01
  YS02001898YS02001901        1.92      1.92      1.94      0.01         0.01
  YS02001901YS02001904        1.94      1.94      1.94      0.01         0.01
  YS02001904YS02001907        1.94      1.94      2.06      0.01         0.01
  YS02001907YS02006553        2.10      2.10      2.12      0.78         0.78
  YS02001910YS02001907        1.97      1.97      2.05      1.15         1.15
  YS02001915YS02001910        1.92      1.92      1.97      0.01         0.05
  YS02001918YS02001915        1.87      1.87      1.92      0.01         0.01
  YS02001920YS02001918        1.87      1.87      1.88      0.78         0.01
  YS02001923YS02001920        1.83      1.83      1.88      0.01         0.01
  YS02001926YS02001923        1.48      1.48      1.56      1.05         0.01
  YS02001929YS02001926        1.20      1.20      1.56      0.01         0.01
  YS02006553YS02006556        2.01      2.01      2.06      0.69         0.69
  YS02006556YS02006558        2.04      2.04      2.06      0.67         0.01
  YS02006558YS02006561        1.89      2.00      1.89      2.09         1.89
  YS02006561YS02001783        1.84      1.84      1.95      0.01         0.01
  YS02163301YS02001633        2.35      2.35      2.38      0.82         0.01
  YS02163601YS02164001        2.36      2.36      2.41      0.04         0.01
  YS02164001YS02001641        2.36      2.36      2.37      1.21         1.20
  YSB1154YSB6556              2.07      2.07      2.11      1.07         0.01
  YSB1171HS02004479           2.02      2.02      2.11      0.01         0.01
  YSB1174YSB1171              2.09      2.09      2.19      0.77         0.77
  YSB6556YSB1171              2.07      2.07      2.24      0.01         0.01
  
  
  ***************
  Pumping Summary
  ***************
  
  ---------------------------------------------------------------------------------------------------------
                                                  Min       Avg       Max     Total     Power    % Time Off
                        Percent   Number of      Flow      Flow      Flow    Volume     Usage    Pump Curve
  Pump                 Utilized   Start-Ups       LPS       LPS       LPS  10^6 ltr     Kw-hr    Low   High
  ---------------------------------------------------------------------------------------------------------
  CC-R1                   69.76           2      0.00    683.00    683.00     6.861    138.80    0.0   62.3
  CC-R2                   67.94           2      0.00    683.00    683.00     6.682    135.49    0.0   64.0
  CC-S1                   72.32           2      0.00    200.00    200.00     2.083     11.84    0.0   55.4
  CC-S2                   71.09           2      0.00    200.00    200.00     2.047     11.51    0.0   56.4
  JK-R1                   46.26           5      0.00   1000.00   1000.00     6.661     56.76    0.0    0.0
  JK-R2                    0.33           1      0.00   1000.00   1000.00     0.047      0.36    0.0    0.0
  JK-S                    56.43           2      0.00    300.00    300.00     2.438     41.17    0.0    0.0
  

  Analysis begun on:  Tue Jun  9 17:05:11 2026
  Analysis ended on:  Tue Jun  9 17:05:11 2026
  Total elapsed time: < 1 sec