
  EPA STORM WATER MANAGEMENT MODEL - VERSION 5.2 (Build 5.2.4)
  PYSWMM TOOLKIT API - VERSION v1.0 (2026-02-26)
  ------------------------------------------------------------

  WARNING 03: negative offset ignored for Link YS02001904YS02001907
  
  ****************
  Analysis Options
  ****************
  Flow Units ............... LPS
  Process Models:
    Rainfall/Runoff ........ YES
    RDII ................... NO
    Snowmelt ............... NO
    Groundwater ............ NO
    Flow Routing ........... YES
    Ponding Allowed ........ NO
    Water Quality .......... NO
  Infiltration Method ...... HORTON
  Flow Routing Method ...... DYNWAVE
  Surcharge Method ......... EXTRAN
  Starting Date ............ 08/28/2015 08:00:00
  Ending Date .............. 08/28/2015 12:00:00
  Antecedent Dry Days ...... 8.0
  Report Time Step ......... 00:01:00
  Wet Time Step ............ 00:01:00
  Dry Time Step ............ 00:01:00
  Routing Time Step ........ 30.00 sec
  Variable Time Step ....... YES
  Maximum Trials ........... 8
  Number of Threads ........ 4
  Head Tolerance ........... 0.001500 m
  
  
  **************************        Volume         Depth
  Runoff Quantity Continuity     hectare-m            mm
  **************************     ---------       -------
  Total Precipitation ......        29.553       487.851
  Evaporation Loss .........         0.000         0.000
  Infiltration Loss ........         0.194         3.198
  Surface Runoff ...........        29.187       481.808
  Final Storage ............         0.181         2.994
  Continuity Error (%) .....        -0.031
  
  
  **************************        Volume        Volume
  Flow Routing Continuity        hectare-m      10^6 ltr
  **************************     ---------     ---------
  Dry Weather Inflow .......         0.026         0.261
  Wet Weather Inflow .......        29.184       291.840
  Groundwater Inflow .......         0.000         0.000
  RDII Inflow ..............         0.000         0.000
  External Inflow ..........         0.015         0.148
  External Outflow .........         3.443        34.434
  Flooding Loss ............        25.631       256.308
  Evaporation Loss .........         0.000         0.000
  Exfiltration Loss ........         0.000         0.000
  Initial Stored Volume ....         0.243         2.431
  Final Stored Volume ......         0.396         3.957
  Continuity Error (%) .....        -0.007
  
  
  *************************
  Highest Continuity Errors
  *************************
  Node YS02001884 (8.07%)
  Node YS02001583 (-6.59%)
  
  
  ***************************
  Time-Step Critical Elements
  ***************************
  Link YS02001791YS02001793 (46.31%)
  Link WS02006280WS02006229 (24.32%)
  Link WS02006238WS02006235 (12.72%)
  Link WS02006115WS02006116 (2.20%)
  Link YS02001926YS02001923 (1.66%)
  
  
  ********************************
  Highest Flow Instability Indexes
  ********************************
  Link WS02006238WS02006235 (63)
  Link YS02001602YS02001605 (62)
  Link YS02001605YS02001607 (61)
  Link WS02006229WS02006228 (58)
  Link WS02006280WS02006229 (58)
  
  
  *********************************
  Most Frequent Nonconverging Nodes
  *********************************
  Node CC-1 (23.81%)
  Node CC-2 (23.81%)
  Node JK-1 (23.81%)
  Node JK-2 (23.81%)
  Node WS02004402 (23.81%)
  
  
  *************************
  Routing Time Step Summary
  *************************
  Minimum Time Step           :     0.00 sec
  Average Time Step           :     2.15 sec
  Maximum Time Step           :     9.91 sec
  % of Time in Steady State   :     0.00
  Average Iterations per Step :     5.24
  % of Steps Not Converging   :    23.81
  Time Step Frequencies       :
     30.000 - 13.228 sec      :     0.00 %
     13.228 -  5.833 sec      :     3.90 %
      5.833 -  2.572 sec      :     5.04 %
      2.572 -  1.134 sec      :    81.40 %
      1.134 -  0.500 sec      :     9.66 %
  
  
  ***************************
  Subcatchment Runoff Summary
  ***************************
  
  ------------------------------------------------------------------------------------------------------------------------------
                            Total      Total      Total      Total     Imperv       Perv      Total       Total     Peak  Runoff
                           Precip      Runon       Evap      Infil     Runoff     Runoff     Runoff      Runoff   Runoff   Coeff
  Subcatchment                 mm         mm         mm         mm         mm         mm         mm    10^6 ltr      LPS
  ------------------------------------------------------------------------------------------------------------------------------
  sub0                     487.85       0.00       0.00       1.01     452.50      33.10     485.59        0.39   297.60   0.995
  sub1                     487.85       0.00       0.00       1.58     432.58      51.81     484.39        3.22  2214.09   0.993
  sub10                    487.85       0.00       0.00       1.15     447.22      37.73     484.96        5.35  3729.83   0.994
  sub11                    487.85       0.00       0.00       1.15     447.39      37.76     485.15        5.64  4050.02   0.994
  sub12                    487.85       0.00       0.00       1.87     423.25      61.36     484.61        4.24  3151.32   0.993
  sub14                    487.85       0.00       0.00       1.29     442.45      42.45     484.91        4.62  3269.30   0.994
  sub15                    487.85       0.00       0.00       4.31     340.32     140.48     480.80        8.27  5426.51   0.986
  sub16                    487.85       0.00       0.00       4.74     325.92     154.99     480.91        5.04  3504.87   0.986
  sub17                    487.85       0.00       0.00       4.60     330.76     150.25     481.02        4.13  2857.76   0.986
  sub2                     487.85       0.00       0.00       5.31     306.03     171.45     477.48        4.45  2631.95   0.979
  sub22                    487.85       0.00       0.00       6.18     277.20     200.70     477.90       30.19 18870.71   0.980
  sub23                    487.85       0.00       0.00       5.31     306.40     173.25     479.64       22.88 15059.24   0.983
  sub3                     487.85       0.00       0.00       5.31     305.69     169.87     475.56       10.70  5911.44   0.975
  sub4                     487.85       0.00       0.00       1.58     431.21      51.56     482.78       10.07  6115.45   0.990
  sub5                     487.85       0.00       0.00       1.01     452.02      33.02     485.04        5.50  3792.59   0.994
  sub60                    487.85       0.00       0.00       1.72     427.97      56.59     484.56        6.37  4591.78   0.993
  sub61                    487.85       0.00       0.00       2.44     403.69      80.08     483.77        8.88  6398.55   0.992
  sub62                    487.85       0.00       0.00       1.15     447.17      37.73     484.90       13.29  9189.15   0.994
  sub63                    487.85       0.00       0.00       4.17     345.30     136.14     481.45       10.93  7519.01   0.987
  sub64                    487.85       0.00       0.00       2.15     412.99      70.49     483.48       11.61  7752.10   0.991
  sub65                    487.85       0.00       0.00       1.87     422.55      61.09     483.65       13.31  8790.90   0.991
  sub66                    487.85       0.00       0.00       4.17     344.41     134.19     478.59       22.32 12960.54   0.981
  sub67                    487.85       0.00       0.00       1.15     447.55      37.79     485.34        9.03  6698.01   0.995
  sub68                    487.85       0.00       0.00       2.01     418.15      65.93     484.08       13.32  9375.09   0.992
  sub69                    487.85       0.00       0.00       2.15     413.94      70.99     484.92       17.95 11740.09   0.994
  sub7                     487.85       0.00       0.00       1.29     442.59      42.48     485.07        1.63  1187.96   0.994
  sub70                    487.85       0.00       0.00       4.88     320.78     156.82     477.60       13.80  7438.94   0.979
  sub71                    487.85       0.00       0.00       1.15     446.82      37.68     484.50       12.67  8403.04   0.993
  sub72                    487.85       0.00       0.00       1.01     451.18      32.95     484.12        6.66  4246.51   0.992
  sub8                     487.85       0.00       0.00       1.29     442.49      42.46     484.96        3.10  2211.43   0.994
  sub9                     487.85       0.00       0.00       1.29     442.47      42.46     484.93        2.33  1657.65   0.994
  
  
  ******************
  Node Depth Summary
  ******************
  
  ---------------------------------------------------------------------------------
                                 Average  Maximum  Maximum  Time of Max    Reported
                                   Depth    Depth      HGL   Occurrence   Max Depth
  Node                 Type       Meters   Meters   Meters  days hr:min      Meters
  ---------------------------------------------------------------------------------
  HS02004478           JUNCTION     0.91     1.59    10.82     0  02:03        1.58
  HS02004479           JUNCTION     1.01     1.69    10.90     0  01:17        1.67
  HS02004480           JUNCTION     0.98     1.81    11.05     0  03:00        1.81
  HS02004770           JUNCTION     0.87     1.42    11.25     0  01:13        1.42
  HS02004777           JUNCTION     0.89     1.48    11.28     0  01:13        1.48
  HS02004785           JUNCTION     0.79     1.49    11.39     0  01:13        1.41
  HS02004788           JUNCTION     0.77     1.42    11.32     0  01:13        1.42
  HS02004792           JUNCTION     0.94     1.60    11.12     0  01:11        1.60
  HS02004799           JUNCTION     1.08     1.76    10.97     0  01:17        1.76
  HS02004802           JUNCTION     1.05     1.82    10.95     0  03:00        1.82
  HS02004807           JUNCTION     1.09     1.92    11.09     0  01:25        1.92
  HS02004817           JUNCTION     1.45     2.41    11.26     0  01:42        2.41
  HS02004824           JUNCTION     1.03     2.01    11.41     0  01:28        2.01
  HS02004830           JUNCTION     1.01     2.03    11.50     0  01:42        2.03
  HS02004837           JUNCTION     0.95     2.04    11.62     0  01:42        2.04
  HS02004842           JUNCTION     1.23     2.22    11.49     0  01:17        2.22
  HS02004848           JUNCTION     0.95     2.07    11.67     0  01:42        2.07
  HS02004852           JUNCTION     0.97     2.08    11.59     0  01:17        2.07
  HS02004856           JUNCTION     1.01     2.07    11.50     0  01:17        2.07
  HS02004862           JUNCTION     0.98     2.00    11.38     0  01:17        2.00
  HS02004870           JUNCTION     0.99     2.10    11.39     0  01:40        2.10
  HS02004876           JUNCTION     1.08     2.26    11.29     0  01:38        2.26
  HS02004881           JUNCTION     0.94     2.15    11.18     0  01:45        2.15
  HS02004901           JUNCTION     0.86     1.42    11.28     0  01:13        1.42
  WS02004401           JUNCTION     0.70     1.19     7.19     0  01:46        1.19
  WS02006109           JUNCTION     1.88     2.64     9.26     0  01:32        2.64
  WS02006110           JUNCTION     1.60     2.48     9.07     0  01:45        2.47
  WS02006111           JUNCTION     0.82     1.99     8.70     0  01:46        1.99
  WS02006112           JUNCTION     1.34     2.68     8.56     0  01:45        2.68
  WS02006113           JUNCTION     1.01     2.73     9.62     0  03:00        2.73
  WS02006115           JUNCTION     0.90     1.88     8.02     0  01:45        1.88
  WS02006116           JUNCTION     0.84     1.61     7.65     0  01:46        1.60
  WS02006228           JUNCTION     2.14     3.03     9.68     0  02:10        3.03
  WS02006229           JUNCTION     2.26     3.25     9.94     0  03:00        3.25
  WS02006230           JUNCTION     1.98     2.65     9.39     0  01:12        2.65
  WS02006231           JUNCTION     1.59     2.22     9.35     0  01:12        2.21
  WS02006232           JUNCTION     1.64     2.18     9.22     0  01:11        2.18
  WS02006234           JUNCTION     1.48     1.96     9.12     0  01:11        1.96
  WS02006235           JUNCTION     1.47     2.00     9.16     0  01:11        2.00
  WS02006238           JUNCTION     1.48     2.15     9.29     0  01:11        1.98
  WS02006239           JUNCTION     1.38     2.03     9.24     0  01:11        1.81
  WS02006240           JUNCTION     1.27     2.10     9.39     0  01:11        1.69
  WS02006242           JUNCTION     1.25     1.55     8.82     0  01:12        1.55
  WS02006243           JUNCTION     1.10     1.48     8.90     0  01:12        1.37
  WS02006245           JUNCTION     1.04     1.56     9.04     0  01:12        1.56
  WS02006247           JUNCTION     1.02     1.47     8.97     0  01:12        1.47
  WS02006248           JUNCTION     0.94     1.10     8.69     0  01:12        1.10
  WS02006249           JUNCTION     0.94     1.09     8.69     0  01:12        1.09
  WS02006251           JUNCTION     1.54     2.21     9.88     0  01:16        2.21
  WS02006252           JUNCTION     1.05     1.50     9.74     0  00:00        1.50
  WS02006253           JUNCTION     2.02     3.52    11.16     0  03:00        3.52
  WS02006256           JUNCTION     1.92     2.35     9.28     0  00:00        2.35
  WS02006280           JUNCTION     1.03     1.75    10.02     0  01:42        1.75
  WS02006284           JUNCTION     1.25     1.95    10.34     0  02:08        1.94
  WS02006287           JUNCTION     1.03     1.89    10.84     0  03:00        1.89
  YS02001580           JUNCTION     0.45     1.05     9.59     0  01:13        1.05
  YS02001583           JUNCTION     0.49     1.04     9.53     0  03:00        1.04
  YS02001586           JUNCTION     0.72     1.13     9.30     0  01:13        1.13
  YS02001590           JUNCTION     0.91     1.40     9.26     0  01:13        1.40
  YS02001593           JUNCTION     0.82     1.34     9.20     0  01:13        1.30
  YS02001596           JUNCTION     1.08     1.69     9.11     0  01:13        1.68
  YS02001600           JUNCTION     1.26     1.87     9.00     0  01:13        1.87
  YS02001601           JUNCTION     1.46     2.06     8.90     0  01:12        2.06
  YS02001602           JUNCTION     1.32     1.87     8.77     0  01:14        1.87
  YS02001605           JUNCTION     1.24     1.78     8.68     0  01:17        1.78
  YS02001607           JUNCTION     1.14     1.68     8.53     0  03:00        1.66
  YS02001610           JUNCTION     1.18     1.68     8.48     0  01:14        1.68
  YS02001613           JUNCTION     1.15     1.70     8.54     0  03:00        1.70
  YS02001616           JUNCTION     1.09     1.61     8.52     0  01:14        1.61
  YS02001619           JUNCTION     1.08     1.61     8.54     0  01:14        1.61
  YS02001622           JUNCTION     1.06     1.60     8.51     0  03:00        1.59
  YS02001625           JUNCTION     1.27     1.78     8.38     0  01:14        1.78
  YS02001629           JUNCTION     1.30     1.85     8.40     0  01:14        1.85
  YS02001633           JUNCTION     1.40     2.08     8.53     0  01:38        2.08
  YS02001641           JUNCTION     1.35     2.10     8.54     0  03:00        2.10
  YS02001644           JUNCTION     1.34     1.92     8.35     0  01:20        1.92
  YS02001647           JUNCTION     1.16     1.89     8.50     0  03:00        1.79
  YS02001649           JUNCTION     1.34     2.05     8.44     0  01:36        2.05
  YS02001652           JUNCTION     1.22     2.15     8.75     0  01:42        2.15
  YS02001655           JUNCTION     1.07     2.20     9.05     0  01:41        2.20
  YS02001658           JUNCTION     0.91     2.30     9.44     0  01:42        2.30
  YS02001661           JUNCTION     0.81     2.44     9.85     0  01:43        2.44
  YS02001664           JUNCTION     0.52     2.31    10.23     0  01:42        2.31
  YS02001745           JUNCTION     0.60     2.35     9.87     0  01:46        2.35
  YS02001748           JUNCTION     0.86     2.27     9.35     0  01:44        2.27
  YS02001751           JUNCTION     0.98     2.20     9.08     0  01:45        2.19
  YS02001754           JUNCTION     1.16     2.19     8.80     0  01:46        2.18
  YS02001757           JUNCTION     1.43     2.21     8.47     0  01:42        2.21
  YS02001759           JUNCTION     1.37     2.21     8.57     0  01:41        2.21
  YS02001762           JUNCTION     1.34     2.15     8.55     0  01:41        2.15
  YS02001765           JUNCTION     1.30     2.10     8.55     0  03:00        2.10
  YS02001767           JUNCTION     1.27     2.03     8.52     0  03:00        2.03
  YS02001770           JUNCTION     1.27     1.95     8.44     0  01:31        1.95
  YS02001774           JUNCTION     1.32     2.05     8.47     0  03:00        2.05
  YS02001779           JUNCTION     1.08     1.68     8.37     0  01:17        1.68
  YS02001783           JUNCTION     0.78     1.80     7.94     0  03:00        1.49
  YS02001784           JUNCTION     0.72     2.29     8.36     0  03:00        1.31
  YS02001786           JUNCTION     0.57     1.00     7.03     0  01:53        0.99
  YS02001788           JUNCTION     0.41     0.69     6.67     0  01:48        0.69
  YS02001790           JUNCTION     0.46     0.79     6.44     0  01:47        0.79
  YS02001791           JUNCTION     0.28     0.48     5.95     0  01:53        0.46
  YS02001793           JUNCTION     0.16     0.40     5.23     0  01:51        0.37
  YS02001882           JUNCTION     1.00     1.83     8.55     0  01:16        1.83
  YS02001884           JUNCTION     1.08     1.93     8.55     0  01:16        1.93
  YS02001887           JUNCTION     1.16     2.00     8.54     0  01:16        2.00
  YS02001890           JUNCTION     1.15     1.81     8.32     0  01:16        1.81
  YS02001895           JUNCTION     0.93     1.75     8.50     0  03:00        1.75
  YS02001898           JUNCTION     0.93     1.66     8.39     0  01:16        1.64
  YS02001901           JUNCTION     1.03     1.76     8.37     0  01:16        1.74
  YS02001904           JUNCTION     1.01     1.85     8.48     0  03:00        1.85
  YS02001907           JUNCTION     1.31     1.96     8.25     0  01:16        1.96
  YS02001910           JUNCTION     1.20     2.10     8.61     0  03:00        2.01
  YS02001915           JUNCTION     1.08     2.00     8.72     0  01:33        2.00
  YS02001918           JUNCTION     0.85     1.81     8.88     0  01:17        1.81
  YS02001920           JUNCTION     0.95     2.14     9.15     0  03:00        2.14
  YS02001923           JUNCTION     0.78     2.00     9.26     0  01:17        1.94
  YS02001926           JUNCTION     0.74     1.90     9.35     0  01:17        1.90
  YS02001929           JUNCTION     0.59     1.78     9.47     0  01:17        1.78
  YS02006553           JUNCTION     1.33     2.14     8.42     0  01:46        2.13
  YS02006556           JUNCTION     1.32     2.39     8.70     0  03:00        2.39
  YS02006558           JUNCTION     1.38     2.50     8.77     0  01:42        2.50
  YS02006561           JUNCTION     0.56     1.21     7.87     0  01:42        1.20
  YS02163301           JUNCTION     1.34     1.95     8.47     0  02:03        1.95
  YS02163601           JUNCTION     1.42     2.08     8.48     0  03:00        2.08
  YS02164001           JUNCTION     1.35     2.07     8.53     0  03:00        2.07
  YSB1154              JUNCTION     1.22     2.10    11.16     0  01:35        2.10
  YSB1171              JUNCTION     1.28     1.95    10.85     0  01:13        1.95
  YSB1174              JUNCTION     1.13     1.95    11.06     0  01:38        1.95
  YSB6556              JUNCTION     1.07     1.80    10.97     0  01:34        1.80
  CC-1                 OUTFALL      0.00     0.00     0.00     0  00:00        0.00
  CC-2                 OUTFALL      0.00     0.00     0.00     0  00:00        0.00
  JK-1                 OUTFALL      0.00     0.00     0.00     0  00:00        0.00
  JK-2                 OUTFALL      0.00     0.00     0.00     0  00:00        0.00
  WS02004402           OUTFALL      0.58     0.88     6.84     0  01:46        0.88
  CC-storage           STORAGE      1.66     2.30     7.80     0  02:19        2.30
  JK-storage           STORAGE      2.45     4.30     5.10     0  01:52        4.30
  
  
  *******************
  Node Inflow Summary
  *******************
  
  -------------------------------------------------------------------------------------------------
                                  Maximum  Maximum                  Lateral       Total        Flow
                                  Lateral    Total  Time of Max      Inflow      Inflow     Balance
                                   Inflow   Inflow   Occurrence      Volume      Volume       Error
  Node                 Type           LPS      LPS  days hr:min    10^6 ltr    10^6 ltr     Percent
  -------------------------------------------------------------------------------------------------
  HS02004478           JUNCTION      0.00  2326.67     0  02:38           0        17.5      -0.002
  HS02004479           JUNCTION      0.00   434.28     0  01:17           0        1.68       0.115
  HS02004480           JUNCTION      0.00  2158.89     0  01:14           0        11.1       0.031
  HS02004770           JUNCTION  15059.24 15954.94     0  01:49        22.9        26.3       0.022
  HS02004777           JUNCTION      0.03   762.77     0  01:12    0.000432        2.62       0.306
  HS02004785           JUNCTION      0.15   768.48     0  01:12     0.00216        2.62       0.125
  HS02004788           JUNCTION   5428.18  5428.18     0  01:49        8.29          10       0.016
  HS02004792           JUNCTION  18870.99 19960.70     0  01:50        30.2        36.7       0.009
  HS02004799           JUNCTION   3269.30  4411.39     0  01:49        4.62        13.9       0.059
  HS02004802           JUNCTION      0.00  1240.25     0  02:37           0        7.59       0.072
  HS02004807           JUNCTION   4050.02  5246.57     0  01:49        5.64        12.4       0.057
  HS02004817           JUNCTION      0.60  1197.06     0  02:31     0.00864        6.82       0.292
  HS02004824           JUNCTION   6115.50  6987.73     0  01:50        10.1        13.4       0.013
  HS02004830           JUNCTION      0.15  1048.39     0  01:55     0.00216        3.56       0.074
  HS02004837           JUNCTION   3736.18  3736.18     0  01:49        5.44         5.9       0.029
  HS02004842           JUNCTION      0.00  2354.69     0  01:55           0        5.64       0.252
  HS02004848           JUNCTION   5911.44  5911.44     0  01:50        10.7        11.2       0.012
  HS02004852           JUNCTION      0.00  1000.50     0  01:16           0        4.88       0.026
  HS02004856           JUNCTION   1657.65  2538.39     0  01:49        2.33        7.21       0.032
  HS02004862           JUNCTION   2632.15  3734.28     0  01:50        4.45        10.5       0.017
  HS02004870           JUNCTION   2211.43  2211.43     0  01:49         3.1        8.19       0.019
  HS02004876           JUNCTION   2214.09  3140.07     0  01:49        3.22        10.9       0.038
  HS02004881           JUNCTION   1187.96  2178.55     0  01:49        1.63          11       0.015
  HS02004901           JUNCTION   3504.87  3504.87     0  01:49        5.03        5.03       0.049
  WS02004401           JUNCTION      0.00  2426.95     0  01:46           0        14.9       0.095
  WS02006109           JUNCTION      1.23  1337.22     0  03:00      0.0177        11.9       0.176
  WS02006110           JUNCTION      0.00  1337.60     0  03:00           0        11.3       0.202
  WS02006111           JUNCTION      0.00  1337.98     0  03:00           0        11.3       0.051
  WS02006112           JUNCTION   2857.76  3695.22     0  01:49        4.13        15.4       0.235
  WS02006113           JUNCTION      0.00  1337.19     0  03:00           0        11.3       0.132
  WS02006115           JUNCTION      0.00  2426.85     0  01:46           0          15       0.138
  WS02006116           JUNCTION      0.00  2427.21     0  01:46           0          15       0.062
  WS02006228           JUNCTION      0.00  1336.90     0  02:56           0        11.9       0.110
  WS02006229           JUNCTION      0.00  2327.15     0  02:38           0        18.8       0.076
  WS02006230           JUNCTION     10.28  1025.33     0  01:43       0.148        8.22       0.263
  WS02006231           JUNCTION      0.00   633.64     0  01:10           0        4.57       0.281
  WS02006232           JUNCTION      0.00   615.81     0  01:11           0        4.56       0.391
  WS02006234           JUNCTION      0.00   615.84     0  01:11           0        4.54       0.322
  WS02006235           JUNCTION      0.00   595.75     0  01:11           0         4.3       0.186
  WS02006238           JUNCTION      0.00   592.04     0  01:11           0        4.04       0.155
  WS02006239           JUNCTION      0.00   680.14     0  01:11           0        4.02       0.288
  WS02006240           JUNCTION      0.00   848.19     0  01:11           0        4.01       0.325
  WS02006242           JUNCTION      0.00   801.08     0  01:12           0        4.02       0.410
  WS02006243           JUNCTION      0.00   754.90     0  01:12           0        3.05       0.517
  WS02006245           JUNCTION      0.00   417.97     0  04:00           0        3.06       0.584
  WS02006247           JUNCTION      0.00   559.25     0  01:12           0        3.07       0.382
  WS02006248           JUNCTION      0.00   441.45     0  01:12           0        3.51       0.305
  WS02006249           JUNCTION      0.00  1411.09     0  01:45           0        11.2       0.175
  WS02006251           JUNCTION      0.08  1921.24     0  01:49     0.00111        12.9       0.144
  WS02006252           JUNCTION      0.00   820.21     0  01:47           0        5.69       0.006
  WS02006253           JUNCTION    297.60  1921.19     0  01:49       0.393        11.3       0.130
  WS02006256           JUNCTION      0.00   300.00     0  00:00           0        2.58      -0.047
  WS02006280           JUNCTION      0.00  2325.99     0  02:38           0        17.5      -0.011
  WS02006284           JUNCTION      0.10  2325.79     0  02:38     0.00138        17.5       0.020
  WS02006287           JUNCTION      0.00  2326.09     0  02:38           0        17.5       0.045
  YS02001580           JUNCTION      0.00   124.70     0  01:13           0     0.00477       1.421
  YS02001583           JUNCTION      0.00   186.74     0  01:13           0      0.0156      -6.182
  YS02001586           JUNCTION   7438.94  7438.94     0  01:51        13.8        13.8       0.022
  YS02001590           JUNCTION      0.00   318.04     0  02:40           0        2.59       0.095
  YS02001593           JUNCTION      0.00   318.32     0  03:00           0        2.59       0.044
  YS02001596           JUNCTION      0.00   318.04     0  01:46           0        2.59       0.031
  YS02001600           JUNCTION      0.00   318.02     0  02:05           0        2.59       0.038
  YS02001601           JUNCTION  11740.09 12057.59     0  01:50        17.9        20.5       0.026
  YS02001602           JUNCTION      0.00   587.22     0  01:13           0         3.5       0.135
  YS02001605           JUNCTION      0.00   587.17     0  01:13           0        3.07       0.218
  YS02001607           JUNCTION      0.00   587.03     0  01:13           0        3.06       0.264
  YS02001610           JUNCTION      0.00   956.39     0  02:31           0        5.98       0.141
  YS02001613           JUNCTION      0.00   619.73     0  02:31           0        3.86       0.188
  YS02001616           JUNCTION      0.00   619.76     0  02:31           0        3.86       0.127
  YS02001619           JUNCTION  12960.54 12960.54     0  01:50        22.3        23.2       0.019
  YS02001622           JUNCTION      0.00  1054.00     0  02:03           0         7.9       0.058
  YS02001625           JUNCTION      0.00  1505.52     0  02:04           0        10.1       0.243
  YS02001629           JUNCTION      0.00  1139.05     0  02:03           0        5.63       0.017
  YS02001633           JUNCTION   8791.10  8791.10     0  01:50        13.3          15       0.085
  YS02001641           JUNCTION      0.00  1369.28     0  01:16           0        6.18       0.138
  YS02001644           JUNCTION   7752.14  9503.79     0  01:50        11.6        20.3       0.051
  YS02001647           JUNCTION      0.00  1787.43     0  01:16           0         6.1       0.065
  YS02001649           JUNCTION      0.00  3236.41     0  01:58           0        12.7       0.039
  YS02001652           JUNCTION      0.00  2429.31     0  01:45           0        8.16      -0.034
  YS02001655           JUNCTION      0.15  2731.44     0  01:51     0.00222        8.54       0.030
  YS02001658           JUNCTION      0.00  2783.83     0  01:46           0         8.6      -0.000
  YS02001661           JUNCTION      0.00  2783.84     0  01:45           0        8.59      -0.066
  YS02001664           JUNCTION   7519.01  7519.01     0  01:49        10.9        10.9       0.004
  YS02001745           JUNCTION   4591.79  4591.79     0  01:49        6.37        6.37       0.023
  YS02001748           JUNCTION      0.04  3122.13     0  01:53    0.000648        6.04      -0.038
  YS02001751           JUNCTION      0.01  2353.53     0  01:46    0.000158        5.63       0.030
  YS02001754           JUNCTION      0.26  2354.11     0  01:46     0.00374        5.63      -0.036
  YS02001757           JUNCTION      0.00  3761.21     0  01:46           0        19.6       0.137
  YS02001759           JUNCTION   6398.59  6398.59     0  01:49        8.88        10.8       0.023
  YS02001762           JUNCTION      0.00   757.96     0  01:23           0        3.25       0.063
  YS02001765           JUNCTION      0.00   757.79     0  01:23           0        3.25       0.054
  YS02001767           JUNCTION      0.54   758.36     0  01:23      0.0077        3.26       0.069
  YS02001770           JUNCTION   9189.31  9911.45     0  01:49        13.3        14.7       0.015
  YS02001774           JUNCTION      0.00   852.13     0  02:06           0        3.65       0.085
  YS02001779           JUNCTION      0.01   851.79     0  01:42     7.2e-05        3.61      -0.010
  YS02001783           JUNCTION      0.00  1321.57     0  01:44           0        8.75       0.011
  YS02001784           JUNCTION      1.06  1322.83     0  01:43      0.0153        8.76       0.022
  YS02001786           JUNCTION      0.06  1322.71     0  01:45    0.000811        8.76       0.021
  YS02001788           JUNCTION      0.07  1322.95     0  01:43     0.00102        8.76       0.011
  YS02001790           JUNCTION      0.15  1345.84     0  01:59     0.00223        8.76       0.059
  YS02001791           JUNCTION      0.00  1423.29     0  01:48           0        8.76      -0.060
  YS02001793           JUNCTION      0.00  1451.61     0  01:48           0        8.76       0.003
  YS02001882           JUNCTION      0.00    64.87     0  01:12           0      0.0139      10.115
  YS02001884           JUNCTION      0.00   128.78     0  01:12           0      0.0496       8.776
  YS02001887           JUNCTION   6698.46  6698.46     0  01:49        9.03        9.06       0.066
  YS02001890           JUNCTION      0.00  2052.03     0  01:53           0        6.76       0.101
  YS02001895           JUNCTION      0.00   518.71     0  01:42           0        3.28       0.123
  YS02001898           JUNCTION      0.00   518.70     0  02:04           0        3.28       0.012
  YS02001901           JUNCTION      0.00   519.10     0  02:04           0        3.28       0.153
  YS02001904           JUNCTION      0.00   518.90     0  02:04           0         3.3       0.124
  YS02001907           JUNCTION      0.00  4670.21     0  01:45           0        17.4       0.118
  YS02001910           JUNCTION      0.00  1993.22     0  01:41           0        10.2       0.092
  YS02001915           JUNCTION   8403.06  9624.75     0  01:50        12.7        17.4       0.023
  YS02001918           JUNCTION      0.00  1681.54     0  01:46           0        5.37       0.012
  YS02001920           JUNCTION      2.87  1681.96     0  01:46      0.0413        5.35       0.033
  YS02001923           JUNCTION      0.04  1679.08     0  01:46    0.000543         5.3      -0.004
  YS02001926           JUNCTION      0.05  1678.85     0  01:45    0.000752        5.28       0.011
  YS02001929           JUNCTION   4246.51  4246.51     0  01:50        6.66        6.66      -0.004
  YS02006553           JUNCTION      0.00  2160.64     0  01:45           0         6.2       0.218
  YS02006556           JUNCTION      0.00  2160.74     0  01:46           0        6.22       0.154
  YS02006558           JUNCTION   9375.97  9375.97     0  01:49        13.3        15.5       0.028
  YS02006561           JUNCTION      0.00  1321.94     0  01:58           0        8.75       0.004
  YS02163301           JUNCTION      0.00  1138.94     0  02:03           0        5.64       0.142
  YS02163601           JUNCTION      0.11  1370.70     0  01:16     0.00158        6.18       0.220
  YS02164001           JUNCTION      0.00  1369.08     0  01:16           0        6.17       0.129
  YSB1154              JUNCTION   3792.59  3792.59     0  01:49        5.49         5.5       0.043
  YSB1171              JUNCTION      0.00  1631.04     0  01:42           0        7.03       0.121
  YSB1174              JUNCTION   3151.32  3151.32     0  01:49        4.23        4.24       0.051
  YSB6556              JUNCTION      0.00   725.69     0  01:57           0        3.27       0.082
  CC-1                 OUTFALL       0.00   683.00     0  00:00           0        6.73       0.000
  CC-2                 OUTFALL       0.00   683.00     0  00:00           0        6.54       0.000
  JK-1                 OUTFALL       0.00  1000.00     0  00:00           0        5.99       0.000
  JK-2                 OUTFALL       0.00  1000.00     0  00:00           0       0.239       0.000
  WS02004402           OUTFALL       0.00  2426.92     0  01:46           0        14.9       0.000
  CC-storage           STORAGE       0.00  3252.03     0  01:22           0        20.6       0.003
  JK-storage           STORAGE       0.00  1530.68     0  01:53           0        8.91      -0.069
  
  
  **********************
  Node Surcharge Summary
  **********************
  
  Surcharging occurs when water rises above the top of the highest conduit.
  ---------------------------------------------------------------------
                                               Max. Height   Min. Depth
                                   Hours       Above Crown    Below Rim
  Node                 Type      Surcharged         Meters       Meters
  ---------------------------------------------------------------------
  HS02004478           JUNCTION        1.84          0.668        0.272
  HS02004479           JUNCTION        1.94          0.894        0.156
  HS02004480           JUNCTION        1.96          1.100        0.000
  HS02004770           JUNCTION        1.90          0.720        0.000
  HS02004777           JUNCTION        1.90          0.780        0.000
  HS02004785           JUNCTION        1.86          0.790        0.000
  HS02004788           JUNCTION        1.85          0.720        0.000
  HS02004792           JUNCTION        1.94          0.900        0.000
  HS02004799           JUNCTION        2.01          1.060        0.000
  HS02004802           JUNCTION        1.95          1.109        0.101
  HS02004807           JUNCTION        1.93          1.220        0.000
  HS02004817           JUNCTION        2.18          1.714        0.026
  HS02004824           JUNCTION        1.86          1.310        0.000
  HS02004830           JUNCTION        1.84          1.330        0.000
  HS02004837           JUNCTION        1.81          1.340        0.000
  HS02004842           JUNCTION        1.89          1.520        0.000
  HS02004848           JUNCTION        1.77          1.370        0.000
  HS02004852           JUNCTION        1.78          1.383        0.037
  HS02004856           JUNCTION        1.78          1.300        0.000
  HS02004862           JUNCTION        1.80          1.300        0.000
  HS02004870           JUNCTION        1.81          1.400        0.000
  HS02004876           JUNCTION        1.87          1.560        0.000
  HS02004881           JUNCTION        1.85          1.450        0.000
  HS02004901           JUNCTION        1.89          0.720        0.000
  WS02004401           JUNCTION        0.50          0.193        1.467
  WS02006109           JUNCTION        2.85          1.820        0.000
  WS02006110           JUNCTION        2.84          1.570        0.280
  WS02006111           JUNCTION        1.91          1.183        0.687
  WS02006112           JUNCTION        2.36          1.680        0.000
  WS02006113           JUNCTION        2.00          1.930        0.000
  WS02006115           JUNCTION        1.71          0.874        1.376
  WS02006116           JUNCTION        0.89          0.548        1.742
  WS02006228           JUNCTION        2.85          2.198        0.002
  WS02006229           JUNCTION        2.00          1.070        0.000
  WS02006230           JUNCTION        2.67          1.570        0.000
  WS02006231           JUNCTION        2.82          1.515        0.015
  WS02006232           JUNCTION        2.83          1.480        0.000
  WS02006234           JUNCTION        2.81          1.240        0.000
  WS02006235           JUNCTION        2.81          1.290        0.000
  WS02006238           JUNCTION        2.81          1.429        0.001
  WS02006239           JUNCTION        2.80          1.290        0.000
  WS02006240           JUNCTION        2.80          1.390        0.000
  WS02006242           JUNCTION        2.80          0.820        0.000
  WS02006243           JUNCTION        2.80          0.770        0.000
  WS02006245           JUNCTION        2.79          0.850        0.000
  WS02006247           JUNCTION        2.79          0.760        0.000
  WS02006248           JUNCTION        2.79          0.380        0.000
  WS02006249           JUNCTION        2.79          0.390        0.000
  WS02006251           JUNCTION        2.78          1.180        0.000
  WS02006252           JUNCTION        2.92          1.100        0.000
  WS02006253           JUNCTION        2.78          2.480        0.000
  WS02006256           JUNCTION        3.48          2.050        0.000
  WS02006280           JUNCTION        1.97          0.698        0.082
  WS02006284           JUNCTION        1.93          0.665        0.135
  WS02006287           JUNCTION        1.89          0.890        0.000
  YS02001580           JUNCTION        1.96          0.450        0.000
  YS02001583           JUNCTION        1.97          0.398        0.102
  YS02001586           JUNCTION        2.05          0.510        0.000
  YS02001590           JUNCTION        2.10          0.750        0.000
  YS02001593           JUNCTION        2.10          0.722        0.118
  YS02001596           JUNCTION        2.18          0.957        0.113
  YS02001600           JUNCTION        2.28          1.190        0.000
  YS02001601           JUNCTION        2.48          1.440        0.000
  YS02001602           JUNCTION        2.43          1.270        0.000
  YS02001605           JUNCTION        2.41          1.180        0.000
  YS02001607           JUNCTION        2.12          0.680        0.000
  YS02001610           JUNCTION        2.14          0.680        0.000
  YS02001613           JUNCTION        2.12          0.700        0.000
  YS02001616           JUNCTION        2.09          0.610        0.000
  YS02001619           JUNCTION        2.08          0.610        0.000
  YS02001622           JUNCTION        2.08          0.604        0.016
  YS02001625           JUNCTION        2.23          0.780        0.000
  YS02001629           JUNCTION        2.05          0.470        0.000
  YS02001633           JUNCTION        2.29          1.060        0.000
  YS02001641           JUNCTION        2.29          1.100        0.000
  YS02001644           JUNCTION        2.28          0.920        0.000
  YS02001647           JUNCTION        2.12          0.891        0.009
  YS02001649           JUNCTION        2.25          1.050        0.000
  YS02001652           JUNCTION        2.08          1.121        0.009
  YS02001655           JUNCTION        1.94          1.200        0.000
  YS02001658           JUNCTION        1.72          1.300        0.000
  YS02001661           JUNCTION        1.03          1.374        0.016
  YS02001664           JUNCTION        0.63          1.310        0.000
  YS02001745           JUNCTION        0.66          1.350        0.000
  YS02001748           JUNCTION        1.65          1.190        0.000
  YS02001751           JUNCTION        1.88          1.198        0.002
  YS02001754           JUNCTION        2.03          1.137        0.013
  YS02001757           JUNCTION        2.32          1.210        0.000
  YS02001759           JUNCTION        2.24          1.210        0.000
  YS02001762           JUNCTION        2.22          1.150        0.000
  YS02001765           JUNCTION        2.18          1.100        0.000
  YS02001767           JUNCTION        2.15          1.030        0.000
  YS02001770           JUNCTION        2.13          0.920        0.000
  YS02001774           JUNCTION        2.21          1.050        0.000
  YS02001779           JUNCTION        2.01          0.680        0.000
  YS02001783           JUNCTION        1.87          1.002        0.598
  YS02001784           JUNCTION        1.86          1.490        0.000
  YS02001786           JUNCTION        1.78          0.195        1.235
  YS02001882           JUNCTION        1.84          0.830        0.000
  YS02001884           JUNCTION        1.84          0.870        0.000
  YS02001887           JUNCTION        1.87          0.950        0.000
  YS02001890           JUNCTION        1.87          0.760        0.000
  YS02001895           JUNCTION        1.83          0.750        0.000
  YS02001898           JUNCTION        1.82          0.627        0.113
  YS02001901           JUNCTION        1.86          0.761        0.109
  YS02001904           JUNCTION        1.85          0.850        0.000
  YS02001907           JUNCTION        1.98          0.950        0.000
  YS02001910           JUNCTION        1.89          1.100        0.000
  YS02001915           JUNCTION        1.83          1.000        0.000
  YS02001918           JUNCTION        1.77          0.810        0.000
  YS02001920           JUNCTION        1.78          1.140        0.000
  YS02001923           JUNCTION        1.13          0.794        0.026
  YS02001926           JUNCTION        1.21          0.900        0.000
  YS02001929           JUNCTION        0.88          0.780        0.000
  YS02006553           JUNCTION        1.99          1.136        0.054
  YS02006556           JUNCTION        1.94          1.350        0.000
  YS02006558           JUNCTION        1.93          1.400        0.000
  YS02006561           JUNCTION        1.75          0.409        0.741
  YS02163301           JUNCTION        2.27          0.955        0.075
  YS02163601           JUNCTION        2.33          1.080        0.000
  YS02164001           JUNCTION        2.28          1.072        0.028
  YSB1154              JUNCTION        2.04          1.400        0.000
  YSB1171              JUNCTION        2.04          1.100        0.000
  YSB1174              JUNCTION        2.02          1.250        0.000
  YSB6556              JUNCTION        2.00          1.100        0.000
  
  
  *********************
  Node Flooding Summary
  *********************
  
  Flooding refers to all water that overflows a node, whether it ponds or not.
  --------------------------------------------------------------------------
                                                             Total   Maximum
                                 Maximum   Time of Max       Flood    Ponded
                        Hours       Rate    Occurrence      Volume     Depth
  Node                 Flooded       LPS   days hr:min    10^6 ltr    Meters
  --------------------------------------------------------------------------
  HS02004480              0.01      0.25      0  03:00       0.000     0.000
  HS02004770              1.83  15952.14      0  01:49      24.543     0.000
  HS02004777              0.01     28.78      0  01:13       0.000     0.000
  HS02004785              0.01     58.63      0  01:13       0.000     0.000
  HS02004788              0.47   3912.65      0  01:49       2.545     0.000
  HS02004792              1.78  18818.50      0  01:50      27.469     0.000
  HS02004799              1.45   3104.42      0  01:49       3.399     0.000
  HS02004807              1.22   4011.70      0  01:49       4.740     0.000
  HS02004824              1.09   5790.88      0  01:50       6.534     0.000
  HS02004830              0.23    176.16      0  01:53       0.123     0.000
  HS02004837              0.18   1601.88      0  01:49       0.511     0.000
  HS02004842              1.07   2354.69      0  01:55       4.818     0.000
  HS02004848              0.44   3760.40      0  01:50       2.667     0.000
  HS02004856              0.58   1534.54      0  01:49       1.255     0.000
  HS02004862              1.01   3733.61      0  01:50       5.402     0.000
  HS02004870              0.26   1206.27      0  01:49       0.462     0.000
  HS02004876              0.46   2149.08      0  01:49       1.495     0.000
  HS02004881              0.14    553.99      0  01:49       0.139     0.000
  HS02004901              0.85   3033.07      0  01:49       2.553     0.000
  WS02006109              0.73    449.90      0  01:49       0.569     0.000
  WS02006112              0.19   1267.05      0  01:49       0.417     0.000
  WS02006113              0.01     31.00      0  03:00       0.000     0.000
  WS02006229              0.01      0.41      0  03:00       0.000     0.000
  WS02006230              1.92    572.91      0  02:14       3.562     0.000
  WS02006232              0.38     12.75      0  01:11       0.001     0.000
  WS02006234              1.97    128.78      0  01:42       0.881     0.000
  WS02006235              0.01    102.07      0  01:11       0.000     0.000
  WS02006239              0.01    339.11      0  01:11       0.001     0.000
  WS02006240              0.01    708.35      0  01:11       0.002     0.000
  WS02006242              2.00    758.13      0  01:12       0.982     0.000
  WS02006243              0.01    698.21      0  01:12       0.004     0.000
  WS02006245              0.01    208.85      0  01:12       0.001     0.000
  WS02006247              0.01    458.98      0  01:12       0.002     0.000
  WS02006248              2.08    418.67      0  01:12       2.457     0.000
  WS02006249              2.79   1350.24      0  01:42       9.678     0.000
  WS02006251              0.34     89.88      0  01:49       0.064     0.000
  WS02006252              1.80    820.21      0  01:44       4.022     0.000
  WS02006253              0.01      0.22      0  03:00       0.000     0.000
  WS02006256              2.39    293.19      0  00:00       1.677     0.000
  WS02006287              0.01      0.18      0  03:00       0.000     0.000
  YS02001580              0.01    106.59      0  01:13       0.000     0.000
  YS02001586              1.87   7121.23      0  01:51      11.199     0.000
  YS02001590              0.01      5.39      0  01:13       0.000     0.000
  YS02001600              0.01      1.43      0  01:13       0.000     0.000
  YS02001601              1.98  11658.21      0  01:50      17.039     0.000
  YS02001602              1.96     65.27      0  03:00       0.425     0.000
  YS02001605              0.01      4.73      0  03:00       0.000     0.000
  YS02001607              0.01    131.60      0  03:00       0.001     0.000
  YS02001610              1.88    955.38      0  02:13       5.052     0.000
  YS02001613              0.01      0.22      0  03:00       0.000     0.000
  YS02001616              0.19     44.13      0  01:14       0.001     0.000
  YS02001619              1.03  11289.20      0  01:50      12.393     0.000
  YS02001625              1.90   1505.28      0  02:04       8.397     0.000
  YS02001629              1.07    686.86      0  02:03       1.787     0.000
  YS02001633              0.54   6747.08      0  01:50       4.799     0.000
  YS02001641              0.01      0.13      0  03:00       0.000     0.000
  YS02001644              1.67   9503.48      0  01:50      16.615     0.000
  YS02001649              0.61   2389.70      0  01:58       3.652     0.000
  YS02001655              0.37    303.20      0  01:44       0.376     0.000
  YS02001658              0.33     52.22      0  01:46       0.060     0.000
  YS02001664              0.32   4733.06      0  01:49       2.336     0.000
  YS02001745              0.12   1466.46      0  01:49       0.328     0.000
  YS02001748              0.19    768.81      0  01:52       0.412     0.000
  YS02001757              0.25    408.76      0  01:56       0.219     0.000
  YS02001759              0.33   4265.11      0  01:49       2.069     0.000
  YS02001762              0.04      1.75      0  01:43       0.000     0.000
  YS02001765              0.01      0.43      0  03:00       0.000     0.000
  YS02001767              0.01      0.30      0  03:00       0.000     0.000
  YS02001770              0.88   9057.97      0  01:49       9.105     0.000
  YS02001774              0.01      0.23      0  03:00       0.000     0.000
  YS02001779              1.63    851.49      0  01:42       3.593     0.000
  YS02001784              0.01     97.53      0  03:00       0.000     0.000
  YS02001882              0.01      3.77      0  01:16       0.000     0.000
  YS02001884              0.01      4.35      0  01:16       0.000     0.000
  YS02001887              0.36   4639.05      0  01:49       2.262     0.000
  YS02001890              1.26   1538.42      0  01:44       3.470     0.000
  YS02001895              0.01      0.13      0  03:00       0.000     0.000
  YS02001904              0.01      0.22      0  03:00       0.000     0.000
  YS02001907              1.74   4669.23      0  01:45      15.201     0.000
  YS02001910              0.01     21.51      0  03:00       0.000     0.000
  YS02001915              0.77   7631.58      0  01:50       7.147     0.000
  YS02001918              0.47    459.60      0  01:46       0.634     0.000
  YS02001920              0.01      0.23      0  03:00       0.000     0.000
  YS02001926              0.01     52.89      0  01:17       0.000     0.000
  YS02001929              0.33   2567.37      0  01:50       1.394     0.000
  YS02006556              0.01      0.24      0  03:00       0.000     0.000
  YS02006558              0.31   5890.87      0  01:49       2.781     0.000
  YS02163601              0.01      0.11      0  03:00       0.000     0.000
  YSB1154                 0.61   3066.00      0  01:49       2.228     0.000
  YSB1171                 1.70   1630.72      0  01:42       6.438     0.000
  YSB1174                 0.46   2397.21      0  01:49       1.369     0.000
  YSB6556                 0.69     85.86      0  02:11       0.199     0.000
  CC-storage              0.70    264.55      0  02:19       0.358     0.000
  
  
  **********************
  Storage Volume Summary
  **********************
  
  ------------------------------------------------------------------------------------------------
                         Average    Avg   Evap  Exfil     Maximum    Max    Time of Max    Maximum
                          Volume   Pcnt   Pcnt   Pcnt      Volume   Pcnt     Occurrence    Outflow
  Storage Unit           1000 m³   Full   Loss   Loss     1000 m³   Full    days hr:min        LPS
  ------------------------------------------------------------------------------------------------
  CC-storage               4.633   72.3    0.0    0.0       6.410  100.0       0  02:19    1783.54
  JK-storage               0.123   42.3    0.0    0.0       0.216   74.1       0  01:52    2300.00
  
  
  ***********************
  Outfall Loading Summary
  ***********************
  
  -----------------------------------------------------------
                         Flow       Avg       Max       Total
                         Freq      Flow      Flow      Volume
  Outfall Node           Pcnt       LPS       LPS    10^6 ltr
  -----------------------------------------------------------
  CC-1                  79.54    683.00    683.00       6.730
  CC-2                  77.07    683.00    683.00       6.545
  JK-1                  48.34   1000.00   1000.00       5.986
  JK-2                   1.79   1000.00   1000.00       0.239
  WS02004402            95.08   1273.70   2426.92      14.934
  -----------------------------------------------------------
  System                60.36   4639.70   5792.78      34.434
  
  
  ********************
  Link Flow Summary
  ********************
  
  -----------------------------------------------------------------------------
                                 Maximum  Time of Max   Maximum    Max/    Max/
                                  |Flow|   Occurrence   |Veloc|    Full    Full
  Link                 Type          LPS  days hr:min     m/sec    Flow   Depth
  -----------------------------------------------------------------------------
  HS02004478WS02006287 CONDUIT   2326.09     0  02:38      2.91    0.65    1.00
  HS02004479HS02004480 CONDUIT    433.23     0  01:17      0.64    0.42    1.00
  HS02004480HS02004478 CONDUIT   2164.96     0  01:14      3.09    9.12    1.00
  HS02004770HS02004777 CONDUIT    762.74     0  01:12      1.09    1.39    1.00
  HS02004777HS02004785 CONDUIT    768.33     0  01:12      1.16    0.95    1.00
  HS02004785HS02004788 CONDUIT    706.76     0  01:13      1.37    5.33    1.00
  HS02004788HS02004792 CONDUIT   1089.71     0  02:03      1.56    0.72    1.00
  HS02004792HS02004799 CONDUIT   1626.65     0  01:14      2.32    1.00    1.00
  HS02004799HS02004480 CONDUIT   1793.09     0  01:14      2.56    2.27    1.00
  HS02004802HS02004478 CONDUIT   1240.12     0  02:37      1.77    1.09    1.00
  HS02004807HS02004802 CONDUIT   1240.25     0  02:37      1.77    2.37    1.00
  HS02004817HS02004807 CONDUIT   1197.06     0  02:06      1.71    0.71    1.00
  HS02004817HS02004824 CONDUIT   1196.46     0  02:31      1.71    0.54    1.00
  HS02004824HS02004830 CONDUIT    872.23     0  01:57      1.25    1.14    1.00
  HS02004830HS02004837 CONDUIT   1048.24     0  01:55      1.50    1.04    1.00
  HS02004837HS02004842 CONDUIT   1084.84     0  01:55      1.55    0.65    1.00
  HS02004842HS02004848 CONDUIT   1269.84     0  01:58      1.81    0.74    1.00
  HS02004848HS02004852 CONDUIT   1000.50     0  01:16      1.62    1.13    1.00
  HS02004852HS02004856 CONDUIT    971.43     0  01:16      1.47    1.11    1.00
  HS02004856HS02004862 CONDUIT   1071.72     0  01:16      1.69    1.07    1.00
  HS02004862HS02004870 CONDUIT   1152.23     0  01:16      1.93    1.24    1.00
  HS02004870HS02004876 CONDUIT   1295.00     0  01:16      2.06    0.86    1.00
  HS02004876HS02004881 CONDUIT   1519.50     0  02:28      2.54   16.16    1.00
  HS02004881HS02006253 CONDUIT   1743.14     0  02:06      2.89    0.34    1.00
  HS02004901HS02004770 CONDUIT    469.86     0  02:03      0.67    1.00    1.00
  WS02004401WS02004402 CONDUIT   2426.92     0  01:46      3.17    2.91    0.94
  WS02006109WS02006110 CONDUIT   1337.60     0  03:00      2.66    2.57    1.00
  WS02006110WS02006113 CONDUIT   1337.19     0  03:00      2.66    1.22    1.00
  WS02006111WS02006112 CONDUIT   1339.07     0  03:00      2.66    0.64    1.00
  WS02006112WS02006115 CONDUIT   2426.85     0  01:46      3.09    1.43    1.00
  WS02006113WS02006111 CONDUIT   1337.98     0  03:00      2.81    1.60    1.00
  WS02006115WS02006116 CONDUIT   2427.21     0  01:46      3.09    3.12    1.00
  WS02006116WS02004401 CONDUIT   2426.95     0  01:46      3.09    3.35    1.00
  WS02006228WS02006109 CONDUIT   1335.99     0  03:00      2.66    5.84    1.00
  WS02006229WS02006228 CONDUIT   1336.90     0  02:56      2.66    4.43    1.00
  WS02006230WS02006229 CONDUIT   1015.05     0  01:43      2.64   22.59    1.00
  WS02006231WS02006230 CONDUIT    633.64     0  01:10      1.65    9.61    1.00
  WS02006232WS02006231 CONDUIT    615.81     0  01:11      1.60    1.29    1.00
  WS02006234WS02006232 CONDUIT    615.84     0  01:11      1.77    1.25    1.00
  WS02006235WS02006234 CONDUIT    595.75     0  01:11      1.58    6.29    1.00
  WS02006238WS02006235 CONDUIT    592.04     0  01:11      1.84    1.32    1.00
  WS02006239WS02006238 CONDUIT    635.05     0  01:11      1.88    2.03    1.00
  WS02006240WS02006239 CONDUIT    637.79     0  01:11      1.74    2.01    1.00
  WS02006242WS02006240 CONDUIT    506.74     0  01:12      1.32    2.01    1.00
  WS02006243WS02006242 CONDUIT    466.91     0  01:12      1.34    1.00    1.00
  WS02006245WS02006243 CONDUIT    417.98     0  04:00      1.39    1.24    1.00
  WS02006247WS02006245 CONDUIT    417.97     0  04:00      1.37    3.31    1.00
  WS02006248WS02006247 CONDUIT    421.02     0  01:12      1.38    0.92    1.00
  WS02006249WS02006248 CONDUIT    441.45     0  01:12      1.38    2.42    1.00
  WS02006251WS02006249 CONDUIT   1411.09     0  01:45      3.67    4.07    1.00
  WS02006252WS02006251 CONDUIT    420.21     0  01:47     24.89    1.54    1.00
  WS02006253WS02006251 CONDUIT   1921.16     0  01:49      4.99    5.76    1.00
  WS02006256WS02006235 CONDUIT    288.93     0  00:00      4.23    3.06    1.00
  WS02006280WS02006229 CONDUIT   2327.15     0  02:38      5.25    0.50    1.00
  WS02006284WS02006280 CONDUIT   2325.99     0  02:38      3.32    0.97    1.00
  WS02006287WS02006284 CONDUIT   2325.70     0  02:38      3.09    1.08    1.00
  YS02001580YS02001583 CONDUIT    124.70     0  01:13      0.76    0.48    1.00
  YS02001583YS02001586 CONDUIT    164.61     0  01:13      0.77    0.25    1.00
  YS02001586YS02001590 CONDUIT    318.04     0  02:40      1.29    0.56    1.00
  YS02001590YS02001593 CONDUIT    318.32     0  03:00      1.13    2.00    1.00
  YS02001593YS02001596 CONDUIT    318.04     0  01:46      1.70    0.50    1.00
  YS02001596YS02001600 CONDUIT    318.02     0  02:05      1.27    0.62    1.00
  YS02001600YS02001601 CONDUIT    317.94     0  02:20      1.12    0.55    1.00
  YS02001601YS02001602 CONDUIT    587.22     0  01:13      2.08    2.12    1.00
  YS02001602YS02001605 CONDUIT    587.17     0  01:13      2.08   12.43    1.00
  YS02001605YS02001607 CONDUIT    587.03     0  01:13      2.08    3.22    1.00
  YS02001607YS02001610 CONDUIT    567.28     0  01:13      0.79    0.54    1.00
  YS02001610YS02001613 CONDUIT    620.12     0  02:32      0.79    0.72    1.00
  YS02001613YS02001616 CONDUIT    619.73     0  02:31      0.81    0.53    1.00
  YS02001616YS02001619 CONDUIT    619.76     0  02:31      0.84    1.08    1.00
  YS02001619YS02001622 CONDUIT   1054.00     0  02:03      1.75    1.55    1.00
  YS02001622YS02001625 CONDUIT   1053.73     0  02:04      1.34    0.56    1.00
  YS02001625YS02001629 CONDUIT    956.85     0  01:14      1.22    0.45    1.00
  YS02001629YS02163301 CONDUIT   1139.05     0  02:03      1.45    1.40    1.00
  YS02001633YS02163601 CONDUIT   1370.59     0  01:16      1.75    1.44    1.00
  YS02001641YS02001644 CONDUIT   1370.96     0  01:16      1.75    4.43    1.00
  YS02001644YS02001647 CONDUIT   1787.43     0  01:16      2.33    1.05    1.00
  YS02001647YS02001649 CONDUIT   1799.99     0  01:16      2.36    0.95    1.00
  YS02001649YS02001757 CONDUIT   2101.16     0  01:16      2.68    1.28    1.00
  YS02001652YS02001649 CONDUIT   2429.32     0  02:03      3.09    1.20    1.00
  YS02001655YS02001652 CONDUIT   2429.31     0  01:45      3.09    1.18    1.00
  YS02001658YS02001655 CONDUIT   2731.29     0  01:51      3.48    1.16    1.00
  YS02001661YS02001658 CONDUIT   2783.83     0  01:46      3.54    1.09    1.00
  YS02001664YS02001661 CONDUIT   2783.84     0  01:45      3.54    0.87    1.00
  YS02001745YS02001748 CONDUIT   3122.08     0  01:53      3.98    1.20    1.00
  YS02001748YS02001751 CONDUIT   2353.52     0  01:46      3.00    1.19    1.00
  YS02001751YS02001754 CONDUIT   2353.85     0  01:46      3.00    1.13    1.00
  YS02001754YS02001757 CONDUIT   2353.76     0  01:46      3.00    0.95    1.00
  YS02001757CaochengTiaoxuchi CONDUIT   3252.03     0  01:22      4.15    1.41    1.00
  YS02001759YS02001757 CONDUIT   1491.74     0  01:42      1.90    1.06    1.00
  YS02001762YS02001759 CONDUIT    758.97     0  01:23      0.97    0.87    1.00
  YS02001765YS02001762 CONDUIT    757.96     0  01:23      0.97    0.71    1.00
  YS02001767YS02001765 CONDUIT    757.79     0  01:23      0.96    0.95    1.00
  YS02001770YS02001767 CONDUIT    757.82     0  01:23      0.96    3.00    1.00
  YS02001774YS02001770 CONDUIT    852.13     0  02:06      1.08    0.54    1.00
  YS02001779YS02001774 CONDUIT    851.79     0  01:42      1.08    0.43    1.00
  YS02001783YS02001784 CONDUIT   1321.77     0  01:43      2.63    1.82    1.00
  YS02001784YS02001785 CONDUIT   1322.65     0  01:45      2.63    3.08    1.00
  YS02001786YS02001788 CONDUIT   1322.88     0  01:43      2.74    2.55    0.93
  YS02001788YS02001790 CONDUIT   1345.69     0  01:59      2.93    0.99    0.92
  YS02001790YS02001791 CONDUIT   1423.29     0  01:48      3.58    1.55    0.77
  YS02001791YS02001793 CONDUIT   1451.61     0  01:48      6.99    0.62    0.53
  YS02001793JiankangQianchi CONDUIT   1530.68     0  01:53      2.99    0.12    0.70
  YS02001882YS02001884 CONDUIT     64.87     0  01:12      0.38    0.07    1.00
  YS02001884YS02001887 CONDUIT    128.78     0  01:12      0.33    0.17    1.00
  YS02001887YS02001890 CONDUIT   2052.03     0  01:53      2.61    3.51    1.00
  YS02001890YS02001895 CONDUIT    518.71     0  01:42      0.66    0.24    1.00
  YS02001895YS02001898 CONDUIT    518.70     0  02:04      0.68    0.90    1.00
  YS02001898YS02001901 CONDUIT    519.10     0  02:04      0.66    0.33    1.00
  YS02001901YS02001904 CONDUIT    518.90     0  02:04      0.66    0.80    1.00
  YS02001904YS02001907 CONDUIT    518.64     0  02:03      0.66    0.18    1.00
  YS02001907YS02006553 CONDUIT   2160.75     0  01:45      2.40    2.54    1.00
  YS02001910YS02001907 CONDUIT   1993.04     0  01:46      2.54    1.12    1.00
  YS02001915YS02001910 CONDUIT   1993.22     0  01:41      2.54    0.99    1.00
  YS02001918YS02001915 CONDUIT   1221.69     0  02:02      1.56    0.67    1.00
  YS02001920YS02001918 CONDUIT   1681.54     0  01:46      2.14    1.63    1.00
  YS02001923YS02001920 CONDUIT   1679.09     0  01:46      2.14    0.75    1.00
  YS02001926YS02001923 CONDUIT   1679.05     0  01:46      2.14    2.40    1.00
  YS02001929YS02001926 CONDUIT   1678.79     0  01:45      2.14    0.80    1.00
  YS02006553YS02006556 CONDUIT   2160.64     0  01:45      2.75    1.85    1.00
  YS02006556YS02006558 CONDUIT   2160.74     0  01:46      2.75    1.71    1.00
  YS02006558YS02006561 CONDUIT   1321.94     0  01:58      4.68    2.92    1.00
  YS02006561YS02001783 CONDUIT   1321.57     0  01:44      2.63    0.68    1.00
  YS02163301YS02001633 CONDUIT   1138.94     0  02:03      1.45    1.07    1.00
  YS02163601YS02164001 CONDUIT   1369.08     0  01:16      1.74    1.21    1.00
  YS02164001YS02001641 CONDUIT   1369.28     0  01:16      1.74    1.87    1.00
  YSB1154YSB6556       CONDUIT    725.69     0  01:57      1.89    1.30    1.00
  YSB1171HS02004479    CONDUIT    434.28     0  01:17      0.86    0.29    1.00
  YSB1174YSB1171       CONDUIT    750.69     0  01:50      1.95    1.15    1.00
  YSB6556YSB1171       CONDUIT    639.84     0  01:53      1.66    0.66    1.00
  CC-R1                PUMP       683.00     0  00:00              1.00
  CC-R2                PUMP       683.00     0  00:00              1.00
  CC-S1                PUMP       200.00     0  00:00              1.00
  CC-S2                PUMP       200.00     0  00:00              1.00
  JK-R1                PUMP      1000.00     0  00:00              1.00
  JK-R2                PUMP      1000.00     0  00:00              1.00
  JK-S                 PUMP       300.00     0  00:00              1.00
  
  
  ***************************
  Flow Classification Summary
  ***************************
  
  -------------------------------------------------------------------------------------
                      Adjusted    ---------- Fraction of Time in Flow Class ---------- 
                       /Actual         Up    Down  Sub   Sup   Up    Down  Norm  Inlet 
  Conduit               Length    Dry  Dry   Dry   Crit  Crit  Crit  Crit  Ltd   Ctrl  
  -------------------------------------------------------------------------------------
  HS02004478WS02006287    1.00   0.27  0.00  0.00  0.53  0.20  0.00  0.00  0.07  0.00
  HS02004479HS02004480    1.00   0.07  0.00  0.00  0.93  0.00  0.00  0.00  0.18  0.00
  HS02004480HS02004478    1.00   0.25  0.00  0.00  0.49  0.00  0.00  0.25  0.00  0.00
  HS02004770HS02004777    1.00   0.00  0.25  0.00  0.75  0.00  0.00  0.00  0.01  0.00
  HS02004777HS02004785    1.00   0.00  0.00  0.00  1.00  0.00  0.00  0.00  0.18  0.00
  HS02004785HS02004788    1.00   0.00  0.00  0.00  1.00  0.00  0.00  0.00  0.00  0.00
  HS02004788HS02004792    1.00   0.00  0.00  0.00  0.98  0.02  0.00  0.00  0.47  0.00
  HS02004792HS02004799    1.00   0.00  0.00  0.00  0.98  0.02  0.00  0.00  0.45  0.00
  HS02004799HS02004480    1.00   0.01  0.07  0.00  0.73  0.00  0.20  0.00  0.00  0.00
  HS02004802HS02004478    1.00   0.25  0.01  0.00  0.74  0.00  0.00  0.00  0.01  0.00
  HS02004807HS02004802    1.00   0.25  0.00  0.00  0.73  0.00  0.00  0.02  0.00  0.00
  HS02004817HS02004807    1.00   0.00  0.25  0.00  0.75  0.00  0.00  0.00  0.02  0.00
  HS02004817HS02004824    1.00   0.00  0.00  0.00  1.00  0.00  0.00  0.00  0.43  0.00
  HS02004824HS02004830    1.00   0.00  0.00  0.00  1.00  0.00  0.00  0.00  0.00  0.00
  HS02004830HS02004837    1.00   0.00  0.00  0.00  1.00  0.00  0.00  0.00  0.44  0.00
  HS02004837HS02004842    1.00   0.00  0.00  0.00  0.99  0.01  0.00  0.00  0.21  0.00
  HS02004842HS02004848    1.00   0.00  0.25  0.00  0.75  0.00  0.00  0.00  0.01  0.00
  HS02004848HS02004852    1.00   0.25  0.00  0.00  0.75  0.00  0.00  0.00  0.20  0.00
  HS02004852HS02004856    1.00   0.25  0.01  0.00  0.74  0.00  0.00  0.00  0.17  0.00
  HS02004856HS02004862    1.00   0.00  0.27  0.00  0.73  0.00  0.00  0.00  0.22  0.00
  HS02004862HS02004870    1.00   0.00  0.00  0.00  1.00  0.00  0.00  0.00  0.02  0.00
  HS02004870HS02004876    1.00   0.01  0.00  0.00  0.97  0.02  0.00  0.00  0.40  0.00
  HS02004876HS02004881    1.00   0.04  0.00  0.00  0.81  0.15  0.00  0.00  0.00  0.00
  HS02004881HS02006253    1.00   0.07  0.04  0.00  0.70  0.02  0.00  0.18  0.23  0.00
  HS02004901HS02004770    1.00   0.25  0.00  0.00  0.75  0.00  0.00  0.00  0.01  0.00
  WS02004401WS02004402    1.00   0.05  0.00  0.00  0.95  0.00  0.00  0.00  0.00  0.00
  WS02006109WS02006110    1.00   0.00  0.02  0.00  0.96  0.00  0.02  0.00  0.00  0.00
  WS02006110WS02006113    1.00   0.02  0.02  0.00  0.96  0.00  0.00  0.00  0.00  0.00
  WS02006111WS02006112    1.00   0.04  0.00  0.00  0.95  0.00  0.00  0.00  0.35  0.00
  WS02006112WS02006115    1.00   0.04  0.01  0.00  0.95  0.00  0.01  0.00  0.00  0.00
  WS02006113WS02006111    1.00   0.04  0.00  0.00  0.51  0.46  0.00  0.00  0.07  0.00
  WS02006115WS02006116    1.00   0.05  0.00  0.00  0.77  0.00  0.00  0.18  0.00  0.00
  WS02006116WS02004401    1.00   0.05  0.00  0.00  0.95  0.00  0.00  0.00  0.00  0.00
  WS02006228WS02006109    1.00   0.00  0.00  0.00  1.00  0.00  0.00  0.00  0.01  0.00
  WS02006229WS02006228    1.00   0.00  0.00  0.00  0.98  0.00  0.00  0.02  0.00  0.00
  WS02006230WS02006229    1.00   0.00  0.00  0.00  0.97  0.00  0.00  0.03  0.00  0.00
  WS02006231WS02006230    1.00   0.00  0.00  0.00  0.72  0.00  0.28  0.00  0.00  0.00
  WS02006232WS02006231    1.00   0.00  0.00  0.00  0.99  0.00  0.01  0.00  0.00  0.00
  WS02006234WS02006232    1.00   0.00  0.00  0.00  1.00  0.00  0.00  0.00  0.03  0.00
  WS02006235WS02006234    1.00   0.00  0.00  0.00  0.92  0.00  0.07  0.00  0.00  0.00
  WS02006238WS02006235    1.00   0.00  0.00  0.00  1.00  0.00  0.00  0.00  0.00  0.00
  WS02006239WS02006238    1.00   0.00  0.00  0.00  1.00  0.00  0.00  0.00  0.14  0.00
  WS02006240WS02006239    1.00   0.00  0.00  0.00  0.82  0.00  0.00  0.17  0.01  0.00
  WS02006242WS02006240    1.00   0.01  0.00  0.00  0.98  0.00  0.01  0.00  0.00  0.00
  WS02006243WS02006242    1.00   0.01  0.00  0.00  0.98  0.00  0.00  0.02  0.21  0.00
  WS02006245WS02006243    1.00   0.00  0.00  0.00  0.90  0.00  0.00  0.10  0.00  0.00
  WS02006247WS02006245    1.00   0.00  0.00  0.00  0.98  0.00  0.00  0.02  0.00  0.00
  WS02006248WS02006247    1.00   0.00  0.00  0.00  0.98  0.00  0.00  0.02  0.15  0.00
  WS02006249WS02006248    1.00   0.00  0.00  0.00  0.78  0.00  0.22  0.00  0.00  0.00
  WS02006251WS02006249    1.00   0.00  0.00  0.00  1.00  0.00  0.00  0.00  0.21  0.00
  WS02006252WS02006251    1.00   0.00  0.27  0.00  0.70  0.00  0.03  0.00  0.00  0.00
  WS02006253WS02006251    1.00   0.00  0.00  0.00  0.92  0.00  0.08  0.00  0.00  0.00
  WS02006256WS02006235    1.00   0.00  0.00  0.00  1.00  0.00  0.00  0.00  0.00  0.00
  WS02006280WS02006229    1.00   0.27  0.00  0.00  0.51  0.08  0.00  0.14  0.03  0.00
  WS02006284WS02006280    1.00   0.27  0.00  0.00  0.50  0.00  0.00  0.23  0.00  0.00
  WS02006287WS02006284    1.00   0.21  0.06  0.00  0.50  0.22  0.00  0.02  0.20  0.00
  YS02001580YS02001583    1.00   0.30  0.00  0.00  0.70  0.00  0.00  0.00  0.17  0.00
  YS02001583YS02001586    1.00   0.25  0.05  0.00  0.70  0.00  0.00  0.00  0.18  0.00
  YS02001586YS02001590    1.00   0.25  0.00  0.00  0.73  0.01  0.00  0.02  0.17  0.00
  YS02001590YS02001593    1.00   0.25  0.00  0.00  0.54  0.00  0.20  0.00  0.00  0.00
  YS02001593YS02001596    1.00   0.26  0.00  0.00  0.57  0.01  0.00  0.16  0.03  0.00
  YS02001596YS02001600    1.00   0.26  0.00  0.00  0.64  0.01  0.00  0.09  0.05  0.00
  YS02001600YS02001601    1.00   0.25  0.01  0.00  0.74  0.00  0.00  0.00  0.04  0.00
  YS02001601YS02001602    1.00   0.25  0.00  0.00  0.75  0.00  0.00  0.00  0.00  0.00
  YS02001602YS02001605    1.00   0.26  0.00  0.00  0.74  0.00  0.00  0.00  0.00  0.00
  YS02001605YS02001607    1.00   0.26  0.00  0.00  0.74  0.00  0.00  0.00  0.00  0.00
  YS02001607YS02001610    1.00   0.26  0.00  0.00  0.74  0.00  0.00  0.00  0.01  0.00
  YS02001610YS02001613    1.00   0.25  0.00  0.00  0.75  0.00  0.00  0.00  0.00  0.00
  YS02001613YS02001616    1.00   0.25  0.00  0.00  0.75  0.00  0.00  0.00  0.00  0.00
  YS02001616YS02001619    1.00   0.25  0.00  0.00  0.75  0.00  0.00  0.00  0.00  0.00
  YS02001619YS02001622    1.00   0.25  0.00  0.00  0.74  0.01  0.00  0.00  0.00  0.00
  YS02001622YS02001625    1.00   0.25  0.00  0.00  0.74  0.01  0.00  0.00  0.02  0.00
  YS02001625YS02001629    1.00   0.25  0.03  0.00  0.63  0.00  0.08  0.00  0.00  0.00
  YS02001629YS02163301    1.00   0.26  0.01  0.00  0.73  0.00  0.00  0.00  0.00  0.00
  YS02001633YS02163601    1.00   0.00  0.01  0.00  0.99  0.00  0.00  0.00  0.26  0.00
  YS02001641YS02001644    1.00   0.00  0.01  0.00  0.99  0.00  0.00  0.00  0.00  0.00
  YS02001644YS02001647    1.00   0.00  0.27  0.00  0.73  0.00  0.00  0.00  0.00  0.00
  YS02001647YS02001649    1.00   0.00  0.27  0.00  0.72  0.01  0.00  0.00  0.05  0.00
  YS02001649YS02001757    1.00   0.00  0.00  0.00  1.00  0.00  0.00  0.00  0.27  0.00
  YS02001652YS02001649    1.00   0.00  0.00  0.00  0.98  0.02  0.00  0.00  0.25  0.00
  YS02001655YS02001652    1.00   0.00  0.00  0.00  0.68  0.00  0.00  0.31  0.03  0.00
  YS02001658YS02001655    1.00   0.00  0.26  0.00  0.65  0.09  0.00  0.00  0.10  0.00
  YS02001661YS02001658    1.00   0.26  0.00  0.00  0.59  0.15  0.00  0.00  0.15  0.00
  YS02001664YS02001661    1.00   0.25  0.00  0.00  0.69  0.06  0.00  0.00  0.33  0.00
  YS02001745YS02001748    1.00   0.00  0.00  0.00  0.59  0.00  0.00  0.41  0.07  0.00
  YS02001748YS02001751    1.00   0.00  0.00  0.00  0.92  0.08  0.00  0.00  0.32  0.00
  YS02001751YS02001754    1.00   0.00  0.00  0.00  0.68  0.01  0.00  0.32  0.04  0.00
  YS02001754YS02001757    1.00   0.00  0.00  0.00  0.99  0.01  0.00  0.00  0.30  0.00
  YS02001757CaochengTiaoxuchi    1.00   0.00  0.00  0.00  0.97  0.03  0.00  0.00  0.28  0.00
  YS02001759YS02001757    1.00   0.00  0.00  0.00  0.98  0.02  0.00  0.00  0.13  0.00
  YS02001762YS02001759    1.00   0.00  0.00  0.00  1.00  0.00  0.00  0.00  0.02  0.00
  YS02001765YS02001762    1.00   0.00  0.00  0.00  1.00  0.00  0.00  0.00  0.23  0.00
  YS02001767YS02001765    1.00   0.00  0.00  0.00  1.00  0.00  0.00  0.00  0.00  0.00
  YS02001770YS02001767    1.00   0.00  0.00  0.00  1.00  0.00  0.00  0.00  0.00  0.00
  YS02001774YS02001770    1.00   0.00  0.25  0.00  0.74  0.00  0.00  0.00  0.01  0.00
  YS02001779YS02001774    1.00   0.00  0.00  0.00  1.00  0.00  0.00  0.00  0.28  0.00
  YS02001783YS02001784    1.00   0.00  0.28  0.00  0.72  0.00  0.00  0.00  0.04  0.00
  YS02001784YS02001785    1.00   0.00  0.00  0.00  1.00  0.00  0.00  0.00  0.25  0.00
  YS02001786YS02001788    1.00   0.00  0.00  0.00  0.77  0.23  0.00  0.00  0.00  0.00
  YS02001788YS02001790    1.00   0.00  0.00  0.00  0.51  0.49  0.00  0.00  0.45  0.00
  YS02001790YS02001791    1.00   0.00  0.00  0.00  0.03  0.97  0.00  0.00  0.19  0.00
  YS02001791YS02001793    1.00   0.00  0.00  0.00  0.00  1.00  0.00  0.00  0.08  0.00
  YS02001793JiankangQianchi    1.00   0.00  0.00  0.00  0.72  0.28  0.00  0.00  0.77  0.00
  YS02001882YS02001884    1.00   0.26  0.00  0.00  0.73  0.00  0.00  0.00  0.00  0.00
  YS02001884YS02001887    1.00   0.12  0.11  0.00  0.77  0.00  0.00  0.00  0.00  0.00
  YS02001887YS02001890    1.00   0.00  0.00  0.00  0.94  0.00  0.06  0.00  0.00  0.00
  YS02001890YS02001895    1.00   0.01  0.26  0.00  0.73  0.00  0.00  0.00  0.00  0.00
  YS02001895YS02001898    1.00   0.27  0.00  0.00  0.72  0.00  0.01  0.00  0.00  0.00
  YS02001898YS02001901    1.00   0.27  0.00  0.00  0.73  0.00  0.00  0.00  0.00  0.00
  YS02001901YS02001904    1.00   0.27  0.00  0.00  0.73  0.00  0.00  0.00  0.00  0.00
  YS02001904YS02001907    1.00   0.01  0.27  0.00  0.73  0.00  0.00  0.00  0.00  0.00
  YS02001907YS02006553    1.00   0.01  0.04  0.00  0.95  0.00  0.00  0.00  0.01  0.00
  YS02001910YS02001907    1.00   0.00  0.00  0.00  0.94  0.01  0.00  0.05  0.21  0.00
  YS02001915YS02001910    1.00   0.00  0.00  0.00  0.95  0.05  0.00  0.00  0.21  0.00
  YS02001918YS02001915    1.00   0.00  0.01  0.00  0.96  0.03  0.00  0.00  0.24  0.00
  YS02001920YS02001918    1.00   0.00  0.01  0.00  0.99  0.00  0.00  0.00  0.00  0.00
  YS02001923YS02001920    1.00   0.00  0.00  0.00  1.00  0.00  0.00  0.00  0.52  0.00
  YS02001926YS02001923    1.00   0.00  0.15  0.00  0.46  0.00  0.39  0.00  0.00  0.00
  YS02001929YS02001926    1.00   0.00  0.25  0.00  0.75  0.00  0.00  0.00  0.30  0.00
  YS02006553YS02006556    1.00   0.03  0.00  0.00  0.97  0.00  0.00  0.00  0.06  0.00
  YS02006556YS02006558    1.00   0.00  0.01  0.00  0.99  0.00  0.00  0.00  0.00  0.00
  YS02006558YS02006561    1.00   0.28  0.00  0.00  0.45  0.27  0.00  0.00  0.20  0.00
  YS02006561YS02001783    1.00   0.28  0.00  0.00  0.49  0.23  0.00  0.00  0.19  0.00
  YS02163301YS02001633    1.00   0.00  0.26  0.00  0.74  0.00  0.00  0.00  0.00  0.00
  YS02163601YS02164001    1.00   0.00  0.16  0.00  0.84  0.00  0.00  0.00  0.00  0.00
  YS02164001YS02001641    1.00   0.02  0.15  0.00  0.84  0.00  0.00  0.00  0.10  0.00
  YSB1154YSB6556          1.00   0.25  0.00  0.00  0.75  0.00  0.00  0.00  0.01  0.00
  YSB1171HS02004479       1.00   0.08  0.00  0.00  0.89  0.00  0.00  0.03  0.16  0.00
  YSB1174YSB1171          1.00   0.10  0.09  0.00  0.81  0.00  0.00  0.00  0.00  0.00
  YSB6556YSB1171          1.00   0.08  0.17  0.00  0.75  0.00  0.00  0.00  0.00  0.00
  
  
  *************************
  Conduit Surcharge Summary
  *************************
  
  ----------------------------------------------------------------------------
                                                           Hours        Hours 
                         --------- Hours Full --------   Above Full   Capacity
  Conduit                Both Ends  Upstream  Dnstream   Normal Flow   Limited
  ----------------------------------------------------------------------------
  HS02004478WS02006287        1.84      1.84      1.92      0.01         0.01
  HS02004479HS02004480        1.97      1.97      1.98      0.01         0.01
  HS02004480HS02004478        1.90      1.96      1.90      2.38         1.90
  HS02004770HS02004777        1.90      1.90      1.90      0.09         0.04
  HS02004777HS02004785        1.86      1.86      1.90      0.01         0.01
  HS02004785HS02004788        1.85      1.86      1.85      1.98         0.95
  HS02004788HS02004792        1.85      1.85      1.94      0.01         0.01
  HS02004792HS02004799        1.94      1.94      2.01      0.01         0.01
  HS02004799HS02004480        1.96      1.96      2.01      2.03         0.01
  HS02004802HS02004478        1.90      1.90      1.96      1.27         0.01
  HS02004807HS02004802        1.93      1.93      1.95      1.70         1.70
  HS02004817HS02004807        1.93      1.93      2.18      0.01         0.01
  HS02004817HS02004824        1.86      1.86      2.18      0.01         0.01
  HS02004824HS02004830        1.84      1.84      1.86      0.29         0.29
  HS02004830HS02004837        1.81      1.81      1.84      0.18         0.18
  HS02004837HS02004842        1.81      1.81      1.89      0.01         0.01
  HS02004842HS02004848        1.77      1.77      1.89      0.01         0.01
  HS02004848HS02004852        1.77      1.77      1.78      0.04         0.07
  HS02004852HS02004856        1.78      1.78      1.80      0.45         0.39
  HS02004856HS02004862        1.78      1.78      1.80      0.02         0.01
  HS02004862HS02004870        1.80      1.80      1.81      0.73         0.71
  HS02004870HS02004876        1.81      1.81      1.87      0.01         0.01
  HS02004876HS02004881        1.85      1.87      1.85      2.31         1.85
  HS02004881HS02006253        1.85      1.85      2.78      0.01         0.01
  HS02004901HS02004770        1.89      1.89      1.90      0.66         0.01
  WS02004401WS02004402        0.01      0.49      0.01      2.28         0.01
  WS02006109WS02006110        2.84      2.84      2.85      2.85         0.01
  WS02006110WS02006113        2.00      2.00      2.84      1.67         0.01
  WS02006111WS02006112        1.91      1.91      2.83      0.01         0.01
  WS02006112WS02006115        1.70      1.70      2.36      0.81         0.01
  WS02006113WS02006111        1.92      2.00      1.92      2.27         1.91
  WS02006115WS02006116        0.89      1.74      0.89      2.34         0.89
  WS02006116WS02004401        0.49      1.38      0.49      2.44         0.49
  WS02006228WS02006109        2.85      2.85      2.85      2.96         2.85
  WS02006229WS02006228        2.85      2.85      2.85      2.89         2.85
  WS02006230WS02006229        2.85      2.85      2.85      3.17         0.80
  WS02006231WS02006230        2.66      2.67      2.82      3.07         2.02
  WS02006232WS02006231        2.82      2.82      2.83      0.03         0.37
  WS02006234WS02006232        2.81      2.81      2.83      0.02         0.01
  WS02006235WS02006234        2.80      2.81      2.80      2.99         2.00
  WS02006238WS02006235        2.81      2.81      2.81      0.01         0.83
  WS02006239WS02006238        2.81      2.81      2.81      2.44         0.37
  WS02006240WS02006239        2.80      2.80      2.80      2.44         0.37
  WS02006242WS02006240        2.80      2.80      2.80      2.58         2.00
  WS02006243WS02006242        2.80      2.80      2.80      0.01         0.01
  WS02006245WS02006243        2.79      2.79      2.80      0.46         0.37
  WS02006247WS02006245        2.79      2.79      2.79      2.89         0.73
  WS02006248WS02006247        2.79      2.79      2.79      0.01         0.01
  WS02006249WS02006248        2.79      2.79      2.79      0.80         0.01
  WS02006251WS02006249        2.79      2.79      2.79      2.91         2.78
  WS02006252WS02006251        2.92      2.92      2.92      2.16         1.06
  WS02006253WS02006251        2.79      2.79      2.80      2.03         0.01
  WS02006256WS02006235        3.03      3.04      3.47      0.47         0.01
  WS02006280WS02006229        1.97      1.97      2.00      0.01         0.01
  WS02006284WS02006280        1.93      1.93      1.97      0.01         0.01
  WS02006287WS02006284        1.89      1.89      1.94      1.74         1.74
  YS02001580YS02001583        1.96      1.96      1.98      0.01         0.01
  YS02001583YS02001586        1.96      1.96      2.05      0.01         0.01
  YS02001586YS02001590        2.05      2.05      2.10      0.01         0.01
  YS02001590YS02001593        2.10      2.10      2.12      2.13         0.01
  YS02001593YS02001596        2.11      2.11      2.18      0.01         0.01
  YS02001596YS02001600        2.21      2.21      2.28      0.01         0.01
  YS02001600YS02001601        2.31      2.31      2.48      0.01         0.01
  YS02001601YS02001602        2.43      2.43      2.50      2.22         0.01
  YS02001602YS02001605        2.41      2.41      2.43      2.93         0.01
  YS02001605YS02001607        2.39      2.41      2.41      2.35         2.29
  YS02001607YS02001610        2.12      2.12      2.14      0.01         0.01
  YS02001610YS02001613        2.12      2.12      2.14      0.01         0.01
  YS02001613YS02001616        2.09      2.09      2.12      0.01         0.01
  YS02001616YS02001619        2.08      2.08      2.09      1.05         0.91
  YS02001619YS02001622        2.08      2.08      2.08      2.02         1.91
  YS02001622YS02001625        2.08      2.08      2.23      0.01         0.01
  YS02001625YS02001629        2.05      2.05      2.23      0.01         0.01
  YS02001629YS02163301        2.25      2.25      2.27      0.74         0.05
  YS02001633YS02163601        2.29      2.29      2.33      0.09         0.10
  YS02001641YS02001644        2.28      2.29      2.28      2.54         2.18
  YS02001644YS02001647        2.12      2.12      2.28      0.04         0.01
  YS02001647YS02001649        2.12      2.12      2.25      0.01         0.01
  YS02001649YS02001757        2.24      2.25      2.32      0.12         0.08
  YS02001652YS02001649        2.10      2.10      2.25      0.45         0.45
  YS02001655YS02001652        1.94      1.94      2.08      0.44         0.44
  YS02001658YS02001655        1.72      1.72      1.94      0.38         0.38
  YS02001661YS02001658        1.02      1.02      1.73      0.35         0.35
  YS02001664YS02001661        0.63      0.63      1.32      0.01         0.01
  YS02001745YS02001748        0.66      0.66      1.65      0.16         0.16
  YS02001748YS02001751        1.72      1.72      1.88      0.24         0.24
  YS02001751YS02001754        1.88      1.88      2.03      0.23         0.23
  YS02001754YS02001757        2.07      2.07      2.32      0.01         0.01
  YS02001757CaochengTiaoxuchi        2.26      2.32      2.66      0.84         0.74
  YS02001759YS02001757        2.24      2.24      2.32      0.17         0.10
  YS02001762YS02001759        2.22      2.22      2.24      0.01         0.02
  YS02001765YS02001762        2.18      2.18      2.22      0.01         0.01
  YS02001767YS02001765        2.15      2.15      2.18      0.01         0.03
  YS02001770YS02001767        2.15      2.15      2.15      1.67         0.93
  YS02001774YS02001770        2.13      2.13      2.21      0.01         0.01
  YS02001779YS02001774        2.01      2.01      2.21      0.01         0.01
  YS02001783YS02001784        1.86      1.87      1.86      1.95         1.86
  YS02001784YS02001785        1.78      1.86      1.78      2.04         1.78
  YS02001786YS02001788        0.01      1.78      0.01      2.00         0.01
  YS02001790YS02001791        0.01      0.01      0.01      1.85         0.01
  YS02001793JiankangQianchi        0.01      0.01      3.71      0.01         0.01
  YS02001882YS02001884        1.84      1.84      1.84      0.01         0.01
  YS02001884YS02001887        1.86      1.86      1.87      0.01         0.01
  YS02001887YS02001890        1.87      1.87      1.88      1.11         0.01
  YS02001890YS02001895        1.83      1.83      1.89      0.01         0.01
  YS02001895YS02001898        1.82      1.82      1.83      0.01         0.01
  YS02001898YS02001901        1.83      1.83      1.86      0.01         0.01
  YS02001901YS02001904        1.85      1.85      1.86      0.01         0.01
  YS02001904YS02001907        1.85      1.85      1.99      0.01         0.01
  YS02001907YS02006553        2.04      2.04      2.06      0.53         0.54
  YS02001910YS02001907        1.89      1.89      1.98      0.84         0.84
  YS02001915YS02001910        1.83      1.83      1.89      0.01         0.06
  YS02001918YS02001915        1.77      1.77      1.83      0.01         0.01
  YS02001920YS02001918        1.77      1.77      1.78      0.53         0.01
  YS02001923YS02001920        1.75      1.75      1.78      0.01         0.01
  YS02001926YS02001923        1.13      1.13      1.21      0.75         0.01
  YS02001929YS02001926        0.88      0.88      1.21      0.01         0.01
  YS02006553YS02006556        1.94      1.94      1.99      0.46         0.46
  YS02006556YS02006558        1.97      1.97      2.00      0.44         0.01
  YS02006558YS02006561        1.80      1.93      1.80      2.02         1.80
  YS02006561YS02001783        1.75      1.75      1.87      0.01         0.01
  YS02163301YS02001633        2.27      2.27      2.31      0.56         0.01
  YS02163601YS02164001        2.28      2.28      2.33      0.07         0.01
  YS02164001YS02001641        2.28      2.28      2.29      0.96         0.99
  YSB1154YSB6556              2.00      2.00      2.04      0.77         0.01
  YSB1171HS02004479           1.94      1.94      2.04      0.01         0.01
  YSB1174YSB1171              2.02      2.02      2.12      0.52         0.52
  YSB6556YSB1171              2.00      2.00      2.18      0.01         0.01
  
  
  ***************
  Pumping Summary
  ***************
  
  ---------------------------------------------------------------------------------------------------------
                                                  Min       Avg       Max     Total     Power    % Time Off
                        Percent   Number of      Flow      Flow      Flow    Volume     Usage    Pump Curve
  Pump                 Utilized   Start-Ups       LPS       LPS       LPS  10^6 ltr     Kw-hr    Low   High
  ---------------------------------------------------------------------------------------------------------
  CC-R1                   68.43           2      0.00    683.00    683.00     6.731    135.70    0.0   60.1
  CC-R2                   66.55           2      0.00    683.00    683.00     6.545    132.26    0.0   61.8
  CC-S1                   71.23           2      0.00    200.00    200.00     2.051     11.73    0.0   53.0
  CC-S2                   69.81           2      0.00    200.00    200.00     2.011     11.36    0.0   54.1
  JK-R1                   41.56           6      0.00   1000.00   1000.00     5.985     62.65    0.0    0.0
  JK-R2                    1.65           2      0.00   1000.00   1000.00     0.238      2.21    0.0    0.0
  JK-S                    59.67           2      0.00    300.00    300.00     2.578     38.92    0.0    0.0
  

  Analysis begun on:  Tue Jun  9 17:05:08 2026
  Analysis ended on:  Tue Jun  9 17:05:09 2026
  Total elapsed time: 00:00:01