
  EPA STORM WATER MANAGEMENT MODEL - VERSION 5.2 (Build 5.2.4)
  PYSWMM TOOLKIT API - VERSION v1.0 (2026-02-26)
  ------------------------------------------------------------

  WARNING 03: negative offset ignored for Link YS02001904YS02001907
  
  ****************
  Analysis Options
  ****************
  Flow Units ............... LPS
  Process Models:
    Rainfall/Runoff ........ YES
    RDII ................... NO
    Snowmelt ............... NO
    Groundwater ............ NO
    Flow Routing ........... YES
    Ponding Allowed ........ NO
    Water Quality .......... NO
  Infiltration Method ...... HORTON
  Flow Routing Method ...... DYNWAVE
  Surcharge Method ......... EXTRAN
  Starting Date ............ 08/28/2015 08:00:00
  Ending Date .............. 08/28/2015 12:00:00
  Antecedent Dry Days ...... 8.0
  Report Time Step ......... 00:01:00
  Wet Time Step ............ 00:01:00
  Dry Time Step ............ 00:01:00
  Routing Time Step ........ 30.00 sec
  Variable Time Step ....... YES
  Maximum Trials ........... 8
  Number of Threads ........ 4
  Head Tolerance ........... 0.001500 m
  
  
  **************************        Volume         Depth
  Runoff Quantity Continuity     hectare-m            mm
  **************************     ---------       -------
  Total Precipitation ......        47.847       789.849
  Evaporation Loss .........         0.000         0.000
  Infiltration Loss ........         0.194         3.198
  Surface Runoff ...........        47.478       783.744
  Final Storage ............         0.192         3.174
  Continuity Error (%) .....        -0.034
  
  
  **************************        Volume        Volume
  Flow Routing Continuity        hectare-m      10^6 ltr
  **************************     ---------     ---------
  Dry Weather Inflow .......         0.026         0.261
  Wet Weather Inflow .......        47.475       474.757
  Groundwater Inflow .......         0.000         0.000
  RDII Inflow ..............         0.000         0.000
  External Inflow ..........         0.015         0.148
  External Outflow .........         3.622        36.223
  Flooding Loss ............        43.703       437.035
  Evaporation Loss .........         0.000         0.000
  Exfiltration Loss ........         0.000         0.000
  Initial Stored Volume ....         0.243         2.431
  Final Stored Volume ......         0.435         4.349
  Continuity Error (%) .....        -0.002
  
  
  *************************
  Highest Continuity Errors
  *************************
  Node YS02001583 (-10.58%)
  Node YS02001884 (8.16%)
  
  
  ***************************
  Time-Step Critical Elements
  ***************************
  Link YS02001791YS02001793 (49.27%)
  Link WS02006280WS02006229 (23.19%)
  Link WS02006238WS02006235 (12.38%)
  Link WS02006115WS02006116 (2.22%)
  Link YS02006556YS02006558 (1.31%)
  
  
  ********************************
  Highest Flow Instability Indexes
  ********************************
  Link YS02001605YS02001607 (56)
  Link YS02001602YS02001605 (56)
  Link WS02006238WS02006235 (55)
  Link WS02006229WS02006228 (53)
  Link WS02006280WS02006229 (53)
  
  
  *********************************
  Most Frequent Nonconverging Nodes
  *********************************
  Node CC-1 (17.85%)
  Node CC-2 (17.85%)
  Node JK-1 (17.85%)
  Node JK-2 (17.85%)
  Node WS02004402 (17.85%)
  
  
  *************************
  Routing Time Step Summary
  *************************
  Minimum Time Step           :     0.00 sec
  Average Time Step           :     2.11 sec
  Maximum Time Step           :     9.92 sec
  % of Time in Steady State   :     0.00
  Average Iterations per Step :     4.81
  % of Steps Not Converging   :    17.85
  Time Step Frequencies       :
     30.000 - 13.228 sec      :     0.00 %
     13.228 -  5.833 sec      :     3.72 %
      5.833 -  2.572 sec      :     4.98 %
      2.572 -  1.134 sec      :    82.82 %
      1.134 -  0.500 sec      :     8.48 %
  
  
  ***************************
  Subcatchment Runoff Summary
  ***************************
  
  ------------------------------------------------------------------------------------------------------------------------------
                            Total      Total      Total      Total     Imperv       Perv      Total       Total     Peak  Runoff
                           Precip      Runon       Evap      Infil     Runoff     Runoff     Runoff      Runoff   Runoff   Coeff
  Subcatchment                 mm         mm         mm         mm         mm         mm         mm    10^6 ltr      LPS
  ------------------------------------------------------------------------------------------------------------------------------
  sub0                     789.85       0.00       0.00       1.01     733.47      54.24     787.71        0.64   516.95   0.997
  sub1                     789.85       0.00       0.00       1.58     701.45      85.03     786.48        5.23  4082.04   0.996
  sub10                    789.85       0.00       0.00       1.15     725.16      61.90     787.05        8.68  6816.47   0.996
  sub11                    789.85       0.00       0.00       1.15     725.34      61.92     787.26        9.15  7267.42   0.997
  sub12                    789.85       0.00       0.00       1.87     686.09     100.62     786.72        6.88  5524.58   0.996
  sub14                    789.85       0.00       0.00       1.29     717.38      69.63     787.01        7.49  5920.58   0.996
  sub15                    789.85       0.00       0.00       4.31     551.80     231.01     782.80       13.46 10221.15   0.991
  sub16                    789.85       0.00       0.00       4.74     528.34     254.61     782.95        8.20  6394.54   0.991
  sub17                    789.85       0.00       0.00       4.60     536.21     246.86     783.06        6.72  5230.32   0.991
  sub2                     789.85       0.00       0.00       5.31     496.34     282.81     779.15        7.26  5102.34   0.986
  sub22                    789.85       0.00       0.00       6.18     449.41     330.35     779.76       49.26 36183.68   0.987
  sub23                    789.85       0.00       0.00       5.31     496.73     284.89     781.62       37.28 28249.55   0.990
  sub3                     789.85       0.00       0.00       5.31     495.98     280.90     776.88       17.49 11677.33   0.984
  sub4                     789.85       0.00       0.00       1.58     699.97      84.76     784.73       16.37 11710.32   0.994
  sub5                     789.85       0.00       0.00       1.01     732.97      54.16     787.13        8.92  6971.22   0.997
  sub60                    789.85       0.00       0.00       1.72     693.84      92.83     786.67       10.34  8224.84   0.996
  sub61                    789.85       0.00       0.00       2.44     654.45     131.42     785.87       14.42 11467.59   0.995
  sub62                    789.85       0.00       0.00       1.15     725.11      61.89     786.99       21.56 16873.42   0.996
  sub63                    789.85       0.00       0.00       4.17     559.81     223.69     783.50       17.79 13821.36   0.992
  sub64                    789.85       0.00       0.00       2.15     669.77     115.78     785.55       18.87 14496.38   0.995
  sub65                    789.85       0.00       0.00       1.87     685.36     100.34     785.71       21.63 16470.07   0.995
  sub66                    789.85       0.00       0.00       4.17     558.84     221.43     780.27       36.38 25205.33   0.988
  sub67                    789.85       0.00       0.00       1.15     725.50      61.96     787.46       14.65 11755.67   0.997
  sub68                    789.85       0.00       0.00       2.01     677.96     108.21     786.17       21.64 17052.96   0.995
  sub69                    789.85       0.00       0.00       2.15     670.70     116.27     786.97       29.13 22033.37   0.996
  sub7                     789.85       0.00       0.00       1.29     717.52      69.67     787.18        2.65  2116.12   0.997
  sub70                    789.85       0.00       0.00       4.88     520.10     258.73     778.83       22.50 14709.02   0.986
  sub71                    789.85       0.00       0.00       1.15     724.73      61.84     786.57       20.57 15719.03   0.996
  sub72                    789.85       0.00       0.00       1.01     732.07      54.09     786.15       10.81  8017.76   0.995
  sub8                     789.85       0.00       0.00       1.29     717.42      69.64     787.06        5.03  3985.94   0.996
  sub9                     789.85       0.00       0.00       1.29     717.40      69.64     787.03        3.79  2995.52   0.996
  
  
  ******************
  Node Depth Summary
  ******************
  
  ---------------------------------------------------------------------------------
                                 Average  Maximum  Maximum  Time of Max    Reported
                                   Depth    Depth      HGL   Occurrence   Max Depth
  Node                 Type       Meters   Meters   Meters  days hr:min      Meters
  ---------------------------------------------------------------------------------
  HS02004478           JUNCTION     0.95     1.67    10.90     0  01:51        1.67
  HS02004479           JUNCTION     1.05     1.85    11.05     0  01:12        1.85
  HS02004480           JUNCTION     1.01     1.81    11.05     0  01:12        1.81
  HS02004770           JUNCTION     0.90     1.42    11.25     0  01:09        1.42
  HS02004777           JUNCTION     0.93     1.48    11.28     0  01:09        1.48
  HS02004785           JUNCTION     0.83     1.45    11.36     0  01:09        1.40
  HS02004788           JUNCTION     0.82     1.42    11.32     0  01:09        1.42
  HS02004792           JUNCTION     0.98     1.60    11.12     0  01:08        1.60
  HS02004799           JUNCTION     1.12     1.76    10.97     0  01:10        1.76
  HS02004802           JUNCTION     1.11     1.87    10.99     0  01:51        1.87
  HS02004807           JUNCTION     1.16     1.92    11.09     0  01:12        1.92
  HS02004817           JUNCTION     1.53     2.44    11.29     0  01:50        2.44
  HS02004824           JUNCTION     1.12     2.01    11.41     0  01:10        2.01
  HS02004830           JUNCTION     1.10     2.03    11.50     0  01:32        2.03
  HS02004837           JUNCTION     1.06     2.04    11.62     0  01:50        2.04
  HS02004842           JUNCTION     1.32     2.22    11.49     0  01:13        2.22
  HS02004848           JUNCTION     1.06     2.07    11.67     0  01:50        2.07
  HS02004852           JUNCTION     1.08     2.10    11.61     0  01:13        2.09
  HS02004856           JUNCTION     1.12     2.07    11.50     0  01:13        2.07
  HS02004862           JUNCTION     1.08     2.00    11.38     0  01:13        2.00
  HS02004870           JUNCTION     1.10     2.10    11.39     0  01:50        2.10
  HS02004876           JUNCTION     1.20     2.26    11.29     0  01:13        2.26
  HS02004881           JUNCTION     1.05     2.15    11.18     0  01:13        2.15
  HS02004901           JUNCTION     0.89     1.42    11.28     0  01:09        1.42
  WS02004401           JUNCTION     0.74     1.19     7.19     0  02:22        1.19
  WS02006109           JUNCTION     1.93     2.64     9.26     0  01:12        2.64
  WS02006110           JUNCTION     1.66     2.76     9.34     0  01:08        2.47
  WS02006111           JUNCTION     0.91     1.99     8.69     0  02:01        1.99
  WS02006112           JUNCTION     1.44     2.68     8.56     0  02:01        2.68
  WS02006113           JUNCTION     1.08     1.99     8.88     0  02:01        1.99
  WS02006115           JUNCTION     0.97     1.88     8.02     0  02:01        1.88
  WS02006116           JUNCTION     0.90     1.60     7.64     0  02:01        1.60
  WS02006228           JUNCTION     2.19     3.03     9.68     0  01:10        3.03
  WS02006229           JUNCTION     2.32     3.25     9.94     0  01:12        3.25
  WS02006230           JUNCTION     2.01     2.65     9.39     0  01:10        2.65
  WS02006231           JUNCTION     1.61     2.24     9.36     0  01:08        2.24
  WS02006232           JUNCTION     1.66     2.18     9.22     0  01:08        2.18
  WS02006234           JUNCTION     1.49     1.96     9.12     0  01:09        1.96
  WS02006235           JUNCTION     1.48     2.00     9.16     0  01:10        2.00
  WS02006238           JUNCTION     1.49     2.14     9.29     0  01:10        2.14
  WS02006239           JUNCTION     1.39     2.03     9.24     0  01:09        1.82
  WS02006240           JUNCTION     1.28     2.10     9.39     0  01:10        1.68
  WS02006242           JUNCTION     1.26     1.55     8.82     0  01:10        1.55
  WS02006243           JUNCTION     1.11     1.48     8.90     0  01:10        1.48
  WS02006245           JUNCTION     1.05     1.56     9.04     0  01:10        1.34
  WS02006247           JUNCTION     1.03     1.47     8.97     0  01:10        1.29
  WS02006248           JUNCTION     0.95     1.10     8.69     0  01:10        1.10
  WS02006249           JUNCTION     0.95     1.09     8.69     0  01:10        1.09
  WS02006251           JUNCTION     1.59     2.21     9.88     0  01:13        2.21
  WS02006252           JUNCTION     1.08     1.50     9.74     0  00:00        1.50
  WS02006253           JUNCTION     2.15     3.52    11.16     0  01:13        3.46
  WS02006256           JUNCTION     1.88     2.35     9.28     0  00:00        2.35
  WS02006280           JUNCTION     1.08     1.81    10.08     0  02:32        1.81
  WS02006284           JUNCTION     1.29     2.05    10.45     0  01:51        2.05
  WS02006287           JUNCTION     1.07     1.86    10.81     0  01:51        1.86
  YS02001580           JUNCTION     0.48     1.05     9.59     0  01:10        1.05
  YS02001583           JUNCTION     0.52     1.14     9.64     0  01:10        0.99
  YS02001586           JUNCTION     0.76     1.13     9.30     0  01:10        1.13
  YS02001590           JUNCTION     0.95     1.40     9.26     0  01:10        1.40
  YS02001593           JUNCTION     0.87     1.43     9.29     0  01:10        1.30
  YS02001596           JUNCTION     1.13     1.76     9.18     0  01:51        1.76
  YS02001600           JUNCTION     1.31     1.87     9.00     0  01:10        1.87
  YS02001601           JUNCTION     1.51     2.06     8.90     0  01:09        2.06
  YS02001602           JUNCTION     1.36     1.87     8.77     0  01:11        1.87
  YS02001605           JUNCTION     1.28     1.78     8.68     0  01:11        1.78
  YS02001607           JUNCTION     1.18     1.68     8.53     0  01:11        1.65
  YS02001610           JUNCTION     1.22     1.68     8.48     0  01:11        1.68
  YS02001613           JUNCTION     1.19     1.70     8.54     0  02:32        1.70
  YS02001616           JUNCTION     1.13     1.61     8.52     0  01:11        1.61
  YS02001619           JUNCTION     1.13     1.61     8.54     0  01:11        1.61
  YS02001622           JUNCTION     1.10     1.62     8.52     0  01:51        1.62
  YS02001625           JUNCTION     1.31     1.78     8.38     0  01:11        1.78
  YS02001629           JUNCTION     1.34     1.85     8.40     0  01:11        1.85
  YS02001633           JUNCTION     1.46     2.08     8.53     0  01:12        2.08
  YS02001641           JUNCTION     1.40     1.99     8.43     0  01:50        1.99
  YS02001644           JUNCTION     1.38     1.92     8.35     0  01:15        1.92
  YS02001647           JUNCTION     1.21     1.79     8.40     0  01:51        1.79
  YS02001649           JUNCTION     1.40     2.05     8.44     0  01:44        2.05
  YS02001652           JUNCTION     1.30     2.16     8.76     0  01:50        2.15
  YS02001655           JUNCTION     1.17     2.20     9.05     0  01:50        2.20
  YS02001658           JUNCTION     1.03     2.30     9.44     0  01:50        2.30
  YS02001661           JUNCTION     0.95     2.46     9.86     0  01:50        2.46
  YS02001664           JUNCTION     0.68     2.31    10.23     0  01:50        2.31
  YS02001745           JUNCTION     0.72     2.35     9.87     0  02:04        2.35
  YS02001748           JUNCTION     0.96     2.27     9.35     0  02:00        2.27
  YS02001751           JUNCTION     1.07     2.19     9.07     0  02:00        2.19
  YS02001754           JUNCTION     1.24     2.18     8.78     0  02:00        2.17
  YS02001757           JUNCTION     1.49     2.21     8.47     0  01:51        2.21
  YS02001759           JUNCTION     1.44     2.21     8.57     0  01:50        2.21
  YS02001762           JUNCTION     1.41     2.15     8.55     0  01:50        2.15
  YS02001765           JUNCTION     1.36     2.10     8.55     0  02:32        2.08
  YS02001767           JUNCTION     1.33     2.03     8.52     0  01:50        2.03
  YS02001770           JUNCTION     1.32     1.95     8.44     0  01:19        1.95
  YS02001774           JUNCTION     1.37     2.05     8.47     0  01:50        2.05
  YS02001779           JUNCTION     1.12     1.68     8.37     0  01:14        1.68
  YS02001783           JUNCTION     0.82     1.48     7.62     0  01:56        1.47
  YS02001784           JUNCTION     0.76     1.35     7.42     0  01:50        1.35
  YS02001786           JUNCTION     0.59     0.98     7.01     0  01:56        0.98
  YS02001788           JUNCTION     0.42     0.68     6.65     0  02:22        0.68
  YS02001790           JUNCTION     0.47     0.75     6.39     0  01:47        0.74
  YS02001791           JUNCTION     0.29     0.46     5.93     0  02:19        0.46
  YS02001793           JUNCTION     0.15     0.31     5.14     0  01:39        0.30
  YS02001882           JUNCTION     1.05     1.83     8.55     0  01:54        1.82
  YS02001884           JUNCTION     1.13     1.93     8.55     0  01:53        1.92
  YS02001887           JUNCTION     1.21     2.00     8.54     0  01:50        2.00
  YS02001890           JUNCTION     1.18     1.81     8.32     0  01:13        1.81
  YS02001895           JUNCTION     0.96     1.57     8.32     0  01:19        1.57
  YS02001898           JUNCTION     0.96     1.67     8.41     0  02:32        1.67
  YS02001901           JUNCTION     1.06     1.78     8.39     0  01:51        1.78
  YS02001904           JUNCTION     1.04     1.67     8.30     0  02:32        1.67
  YS02001907           JUNCTION     1.34     1.96     8.25     0  01:13        1.96
  YS02001910           JUNCTION     1.25     2.09     8.60     0  01:51        2.09
  YS02001915           JUNCTION     1.15     2.00     8.72     0  01:13        2.00
  YS02001918           JUNCTION     0.93     1.81     8.88     0  01:13        1.81
  YS02001920           JUNCTION     1.04     2.14     9.15     0  01:14        2.04
  YS02001923           JUNCTION     0.88     2.03     9.29     0  01:14        1.91
  YS02001926           JUNCTION     0.84     1.90     9.35     0  01:14        1.90
  YS02001929           JUNCTION     0.71     1.78     9.47     0  01:14        1.78
  YS02006553           JUNCTION     1.37     2.19     8.47     0  01:51        2.19
  YS02006556           JUNCTION     1.38     2.33     8.64     0  01:56        2.33
  YS02006558           JUNCTION     1.45     2.50     8.77     0  01:51        2.50
  YS02006561           JUNCTION     0.60     1.20     7.86     0  01:56        1.20
  YS02163301           JUNCTION     1.38     2.01     8.53     0  01:51        1.99
  YS02163601           JUNCTION     1.47     2.08     8.48     0  01:12        2.08
  YS02164001           JUNCTION     1.40     2.04     8.49     0  01:12        2.04
  YSB1154              JUNCTION     1.28     2.10    11.16     0  01:12        2.10
  YSB1171              JUNCTION     1.31     1.95    10.85     0  01:10        1.95
  YSB1174              JUNCTION     1.19     1.95    11.06     0  01:12        1.95
  YSB6556              JUNCTION     1.12     1.80    10.97     0  01:10        1.80
  CC-1                 OUTFALL      0.00     0.00     0.00     0  00:00        0.00
  CC-2                 OUTFALL      0.00     0.00     0.00     0  00:00        0.00
  JK-1                 OUTFALL      0.00     0.00     0.00     0  00:00        0.00
  JK-2                 OUTFALL      0.00     0.00     0.00     0  00:00        0.00
  WS02004402           OUTFALL      0.60     0.88     6.84     0  02:22        0.88
  CC-storage           STORAGE      1.70     2.30     7.80     0  02:15        2.30
  JK-storage           STORAGE      2.42     4.24     5.04     0  01:38        4.21
  
  
  *******************
  Node Inflow Summary
  *******************
  
  -------------------------------------------------------------------------------------------------
                                  Maximum  Maximum                  Lateral       Total        Flow
                                  Lateral    Total  Time of Max      Inflow      Inflow     Balance
                                   Inflow   Inflow   Occurrence      Volume      Volume       Error
  Node                 Type           LPS      LPS  days hr:min    10^6 ltr    10^6 ltr     Percent
  -------------------------------------------------------------------------------------------------
  HS02004478           JUNCTION      0.00  2479.38     0  01:10           0        18.2       0.001
  HS02004479           JUNCTION      0.00   465.28     0  01:13           0        1.77       0.105
  HS02004480           JUNCTION      0.00  2288.29     0  01:10           0        11.2       0.033
  HS02004770           JUNCTION  28249.55 29145.24     0  02:13        37.3        41.5       0.013
  HS02004777           JUNCTION      0.03   820.11     0  01:09    0.000432        2.68       0.315
  HS02004785           JUNCTION      0.15   826.83     0  01:09     0.00216        2.68       0.133
  HS02004788           JUNCTION  10222.82 10222.82     0  02:13        13.5        14.9       0.010
  HS02004792           JUNCTION  36183.96 37273.67     0  02:13        49.3        56.4       0.005
  HS02004799           JUNCTION   5920.58  7062.68     0  02:13        7.49        17.1       0.054
  HS02004802           JUNCTION      0.00  1240.24     0  02:57           0        8.47       0.067
  HS02004807           JUNCTION   7267.42  8463.97     0  02:13        9.15        16.9       0.044
  HS02004817           JUNCTION      0.60  1202.28     0  02:32     0.00864        7.86       0.251
  HS02004824           JUNCTION  11710.37 12582.60     0  02:13        16.4        20.6       0.007
  HS02004830           JUNCTION      0.15  1048.39     0  02:15     0.00216        4.52       0.061
  HS02004837           JUNCTION   6822.82  6822.82     0  02:13        8.77        9.25       0.026
  HS02004842           JUNCTION      0.00  2354.69     0  02:15           0        7.64       0.188
  HS02004848           JUNCTION  11677.33 11677.33     0  02:13        17.5        17.8       0.009
  HS02004852           JUNCTION      0.00  1054.42     0  01:12           0        5.27       0.035
  HS02004856           JUNCTION   2995.52  3876.26     0  02:13        3.79        9.05       0.022
  HS02004862           JUNCTION   5102.54  6266.50     0  02:13        7.26        13.9       0.014
  HS02004870           JUNCTION   3985.94  3985.94     0  02:13        5.03        9.61       0.016
  HS02004876           JUNCTION   4082.04  5008.02     0  02:13        5.23        13.1       0.029
  HS02004881           JUNCTION   2116.12  3106.68     0  02:13        2.65        12.5       0.011
  HS02004901           JUNCTION   6394.54  6394.54     0  02:13         8.2         8.2       0.029
  WS02004401           JUNCTION      0.00  2426.78     0  02:22           0          16       0.090
  WS02006109           JUNCTION      1.23  1343.71     0  01:10      0.0177        12.1       0.176
  WS02006110           JUNCTION      0.00  1343.98     0  01:10           0        11.2       0.198
  WS02006111           JUNCTION      0.00  1342.46     0  01:10           0        11.2       0.057
  WS02006112           JUNCTION   5230.32  6067.79     0  02:13        6.72        17.9       0.221
  WS02006113           JUNCTION      0.00  1340.22     0  03:02           0        11.2       0.131
  WS02006115           JUNCTION      0.00  2426.78     0  02:22           0        16.1       0.124
  WS02006116           JUNCTION      0.00  2426.78     0  02:22           0        16.1       0.056
  WS02006228           JUNCTION      0.00  1344.29     0  01:10           0        12.1       0.110
  WS02006229           JUNCTION      0.00  2328.14     0  02:58           0        19.4       0.076
  WS02006230           JUNCTION     10.28  1027.11     0  01:50       0.148        8.46       0.255
  WS02006231           JUNCTION      0.00   714.48     0  01:09           0        4.56       0.288
  WS02006232           JUNCTION      0.00   714.25     0  01:09           0        4.55       0.377
  WS02006234           JUNCTION      0.00   714.09     0  01:09           0        4.53       0.326
  WS02006235           JUNCTION      0.00   743.96     0  01:09           0        4.28       0.180
  WS02006238           JUNCTION      0.00   687.01     0  01:09           0        4.16       0.150
  WS02006239           JUNCTION      0.00   744.96     0  01:09           0        4.15       0.285
  WS02006240           JUNCTION      0.00   895.41     0  01:10           0        4.13       0.292
  WS02006242           JUNCTION      0.00   863.47     0  01:10           0        4.13       0.359
  WS02006243           JUNCTION      0.00   642.80     0  01:10           0        3.12       0.484
  WS02006245           JUNCTION      0.00   443.51     0  01:10           0        3.13       0.591
  WS02006247           JUNCTION      0.00   472.96     0  01:10           0        3.14       0.361
  WS02006248           JUNCTION      0.00   500.05     0  01:10           0        3.65       0.319
  WS02006249           JUNCTION      0.00  1411.09     0  02:00           0        11.7       0.171
  WS02006251           JUNCTION      0.08  1942.27     0  02:12     0.00111        13.9       0.131
  WS02006252           JUNCTION      0.00   820.21     0  01:57           0        6.23       0.009
  WS02006253           JUNCTION    516.95  1942.18     0  02:12       0.638        12.4       0.120
  WS02006256           JUNCTION      0.00   300.00     0  00:00           0        2.43      -0.045
  WS02006280           JUNCTION      0.00  2326.41     0  02:57           0        18.2      -0.008
  WS02006284           JUNCTION      0.10  2327.14     0  02:58     0.00138        18.2       0.005
  WS02006287           JUNCTION      0.00  2409.19     0  01:10           0        18.2       0.059
  YS02001580           JUNCTION      0.00   146.09     0  01:10           0     0.00491       3.652
  YS02001583           JUNCTION      0.00   248.64     0  01:10           0      0.0154      -9.565
  YS02001586           JUNCTION  14709.02 14709.02     0  02:13        22.5        22.5       0.013
  YS02001590           JUNCTION      0.00   320.44     0  02:32           0        2.75       0.096
  YS02001593           JUNCTION      0.00   319.75     0  02:32           0        2.75       0.040
  YS02001596           JUNCTION      0.00   318.60     0  01:32           0        2.74       0.023
  YS02001600           JUNCTION      0.00   318.74     0  01:51           0        2.74       0.050
  YS02001601           JUNCTION  22033.37 22350.88     0  02:13        29.1        31.9       0.017
  YS02001602           JUNCTION      0.00   603.57     0  01:10           0        3.64       0.143
  YS02001605           JUNCTION      0.00   603.82     0  01:10           0        3.18       0.236
  YS02001607           JUNCTION      0.00   603.56     0  01:10           0        3.17       0.268
  YS02001610           JUNCTION      0.00   958.30     0  02:32           0        6.68       0.135
  YS02001613           JUNCTION      0.00   621.99     0  02:32           0         4.4       0.179
  YS02001616           JUNCTION      0.00   632.04     0  02:32           0         4.4       0.119
  YS02001619           JUNCTION  25205.33 25205.33     0  02:13        36.4        37.3       0.011
  YS02001622           JUNCTION      0.00  1053.98     0  01:40           0        8.45       0.067
  YS02001625           JUNCTION      0.00  1505.49     0  01:41           0        11.1       0.235
  YS02001629           JUNCTION      0.00  1138.95     0  01:51           0         6.8       0.023
  YS02001633           JUNCTION  16470.27 16470.27     0  02:13        21.6        23.3       0.058
  YS02001641           JUNCTION      0.00  1398.03     0  01:13           0        6.86       0.135
  YS02001644           JUNCTION  14496.42 16248.07     0  02:13        18.9          29       0.037
  YS02001647           JUNCTION      0.00  1847.07     0  01:13           0        6.72       0.068
  YS02001649           JUNCTION      0.00  3236.41     0  02:22           0        15.3       0.040
  YS02001652           JUNCTION      0.00  2429.13     0  01:55           0        10.3      -0.028
  YS02001655           JUNCTION      0.15  2731.44     0  02:26     0.00222        10.9       0.026
  YS02001658           JUNCTION      0.00  2783.08     0  02:26           0          11      -0.002
  YS02001661           JUNCTION      0.00  2783.08     0  02:26           0          11       0.002
  YS02001664           JUNCTION  13821.36 13821.36     0  02:13        17.8        17.8      -0.002
  YS02001745           JUNCTION   8224.84  8224.84     0  02:13        10.3        10.3       0.017
  YS02001748           JUNCTION      0.04  3122.13     0  02:13    0.000648        8.31      -0.037
  YS02001751           JUNCTION      0.01  2353.32     0  02:10    0.000158        7.48       0.026
  YS02001754           JUNCTION      0.26  2353.58     0  02:10     0.00374        7.49      -0.034
  YS02001757           JUNCTION      0.00  3760.87     0  02:06           0        22.1       0.173
  YS02001759           JUNCTION  11467.63 11467.63     0  02:13        14.4        16.1       0.027
  YS02001762           JUNCTION      0.00   773.55     0  01:19           0        3.67       0.108
  YS02001765           JUNCTION      0.00   774.54     0  01:19           0        3.67       0.101
  YS02001767           JUNCTION      0.54   773.63     0  01:19      0.0077        3.67       0.117
  YS02001770           JUNCTION  16873.58 17595.76     0  02:13        21.6        23.6       0.013
  YS02001774           JUNCTION      0.00   853.45     0  01:51           0        4.51       0.099
  YS02001779           JUNCTION      0.01   851.77     0  01:40     7.2e-05        4.47      -0.009
  YS02001783           JUNCTION      0.00  1321.24     0  02:22           0        9.18       0.011
  YS02001784           JUNCTION      1.06  1322.22     0  02:26      0.0153        9.19       0.021
  YS02001786           JUNCTION      0.06  1322.28     0  02:26    0.000811        9.19       0.021
  YS02001788           JUNCTION      0.07  1322.39     0  02:24     0.00102        9.19       0.012
  YS02001790           JUNCTION      0.15  1328.91     0  02:25     0.00223        9.19       0.026
  YS02001791           JUNCTION      0.00  1368.65     0  02:22           0        9.19      -0.027
  YS02001793           JUNCTION      0.00  1357.20     0  02:21           0        9.19       0.012
  YS02001882           JUNCTION      0.00    97.79     0  01:11           0      0.0137      10.071
  YS02001884           JUNCTION      0.00   176.79     0  01:10           0      0.0495       8.886
  YS02001887           JUNCTION  11756.12 11756.12     0  02:13        14.7        14.7       0.041
  YS02001890           JUNCTION      0.00  2052.03     0  02:04           0        8.54       0.081
  YS02001895           JUNCTION      0.00   521.42     0  01:50           0        3.57       0.125
  YS02001898           JUNCTION      0.00   518.94     0  01:32           0        3.57       0.012
  YS02001901           JUNCTION      0.00   521.10     0  01:12           0        3.58       0.134
  YS02001904           JUNCTION      0.00   525.54     0  01:12           0        3.59       0.118
  YS02001907           JUNCTION      0.00  4668.51     0  02:22           0        21.3       0.098
  YS02001910           JUNCTION      0.00  1993.18     0  01:46           0        11.9       0.079
  YS02001915           JUNCTION  15719.05 16940.74     0  02:13        20.6        26.4       0.013
  YS02001918           JUNCTION      0.00  1680.99     0  02:27           0         6.8       0.006
  YS02001920           JUNCTION      2.87  1680.99     0  02:22      0.0413        6.78       0.021
  YS02001923           JUNCTION      0.04  1678.12     0  02:27    0.000543        6.72      -0.005
  YS02001926           JUNCTION      0.05  1678.09     0  02:22    0.000752         6.7       0.009
  YS02001929           JUNCTION   8017.76  8017.76     0  02:13        10.8        10.8      -0.001
  YS02006553           JUNCTION      0.00  2159.67     0  02:22           0        7.47       0.182
  YS02006556           JUNCTION      0.00  2159.67     0  02:22           0        7.49       0.127
  YS02006558           JUNCTION  17053.84 17053.84     0  02:13        21.6        23.2       0.017
  YS02006561           JUNCTION      0.00  1321.16     0  02:25           0        9.18       0.005
  YS02163301           JUNCTION      0.00  1138.86     0  02:31           0         6.8       0.128
  YS02163601           JUNCTION      0.11  1399.61     0  01:13     0.00158        6.85       0.214
  YS02164001           JUNCTION      0.00  1398.73     0  01:13           0        6.85       0.120
  YSB1154              JUNCTION   6971.22  6971.22     0  02:13        8.92        8.92       0.026
  YSB1171              JUNCTION      0.00  1638.77     0  01:51           0        8.54       0.104
  YSB1174              JUNCTION   5524.58  5524.58     0  02:13        6.88        6.88       0.031
  YSB6556              JUNCTION      0.00   725.69     0  02:35           0        3.91       0.074
  CC-1                 OUTFALL       0.00   683.00     0  00:00           0        6.83       0.000
  CC-2                 OUTFALL       0.00   683.00     0  00:00           0        6.65       0.000
  JK-1                 OUTFALL       0.00  1000.00     0  00:00           0        6.66       0.000
  JK-2                 OUTFALL       0.00  1000.00     0  00:00           0      0.0483       0.000
  WS02004402           OUTFALL       0.00  2426.78     0  02:22           0          16       0.000
  CC-storage           STORAGE       0.00  3379.28     0  01:17           0        21.6       0.019
  JK-storage           STORAGE       0.00  1378.83     0  02:25           0        9.34       0.074
  
  
  **********************
  Node Surcharge Summary
  **********************
  
  Surcharging occurs when water rises above the top of the highest conduit.
  ---------------------------------------------------------------------
                                               Max. Height   Min. Depth
                                   Hours       Above Crown    Below Rim
  Node                 Type      Surcharged         Meters       Meters
  ---------------------------------------------------------------------
  HS02004478           JUNCTION        1.93          0.750        0.190
  HS02004479           JUNCTION        2.03          1.050        0.000
  HS02004480           JUNCTION        2.05          1.100        0.000
  HS02004770           JUNCTION        2.00          0.720        0.000
  HS02004777           JUNCTION        2.00          0.780        0.000
  HS02004785           JUNCTION        1.96          0.754        0.036
  HS02004788           JUNCTION        1.95          0.720        0.000
  HS02004792           JUNCTION        2.03          0.900        0.000
  HS02004799           JUNCTION        2.09          1.060        0.000
  HS02004802           JUNCTION        2.04          1.155        0.055
  HS02004807           JUNCTION        2.03          1.220        0.000
  HS02004817           JUNCTION        2.26          1.740        0.000
  HS02004824           JUNCTION        1.95          1.310        0.000
  HS02004830           JUNCTION        1.93          1.330        0.000
  HS02004837           JUNCTION        1.90          1.340        0.000
  HS02004842           JUNCTION        1.98          1.520        0.000
  HS02004848           JUNCTION        1.87          1.370        0.000
  HS02004852           JUNCTION        1.89          1.402        0.018
  HS02004856           JUNCTION        1.87          1.300        0.000
  HS02004862           JUNCTION        1.90          1.300        0.000
  HS02004870           JUNCTION        1.91          1.400        0.000
  HS02004876           JUNCTION        1.97          1.560        0.000
  HS02004881           JUNCTION        1.95          1.450        0.000
  HS02004901           JUNCTION        1.99          0.720        0.000
  WS02004401           JUNCTION        0.73          0.191        1.469
  WS02006109           JUNCTION        2.87          1.820        0.000
  WS02006110           JUNCTION        2.86          1.850        0.000
  WS02006111           JUNCTION        1.99          1.177        0.693
  WS02006112           JUNCTION        2.37          1.680        0.000
  WS02006113           JUNCTION        2.08          1.188        0.742
  WS02006115           JUNCTION        1.81          0.869        1.381
  WS02006116           JUNCTION        1.22          0.540        1.750
  WS02006228           JUNCTION        2.87          2.200        0.000
  WS02006229           JUNCTION        2.09          1.070        0.000
  WS02006230           JUNCTION        2.77          1.570        0.000
  WS02006231           JUNCTION        2.85          1.530        0.000
  WS02006232           JUNCTION        2.85          1.480        0.000
  WS02006234           JUNCTION        2.84          1.240        0.000
  WS02006235           JUNCTION        2.84          1.290        0.000
  WS02006238           JUNCTION        2.84          1.421        0.009
  WS02006239           JUNCTION        2.83          1.290        0.000
  WS02006240           JUNCTION        2.83          1.390        0.000
  WS02006242           JUNCTION        2.83          0.820        0.000
  WS02006243           JUNCTION        2.82          0.770        0.000
  WS02006245           JUNCTION        2.82          0.850        0.000
  WS02006247           JUNCTION        2.82          0.760        0.000
  WS02006248           JUNCTION        2.82          0.380        0.000
  WS02006249           JUNCTION        2.82          0.390        0.000
  WS02006251           JUNCTION        2.82          1.180        0.000
  WS02006252           JUNCTION        2.95          1.100        0.000
  WS02006253           JUNCTION        2.82          2.480        0.000
  WS02006256           JUNCTION        3.50          2.050        0.000
  WS02006280           JUNCTION        2.05          0.763        0.017
  WS02006284           JUNCTION        2.02          0.766        0.034
  WS02006287           JUNCTION        1.98          0.859        0.031
  YS02001580           JUNCTION        2.09          0.450        0.000
  YS02001583           JUNCTION        2.09          0.500        0.000
  YS02001586           JUNCTION        2.17          0.510        0.000
  YS02001590           JUNCTION        2.22          0.750        0.000
  YS02001593           JUNCTION        2.22          0.808        0.032
  YS02001596           JUNCTION        2.29          1.026        0.044
  YS02001600           JUNCTION        2.38          1.190        0.000
  YS02001601           JUNCTION        2.57          1.440        0.000
  YS02001602           JUNCTION        2.52          1.270        0.000
  YS02001605           JUNCTION        2.50          1.180        0.000
  YS02001607           JUNCTION        2.22          0.680        0.000
  YS02001610           JUNCTION        2.24          0.680        0.000
  YS02001613           JUNCTION        2.22          0.700        0.000
  YS02001616           JUNCTION        2.19          0.610        0.000
  YS02001619           JUNCTION        2.18          0.610        0.000
  YS02001622           JUNCTION        2.19          0.620        0.000
  YS02001625           JUNCTION        2.33          0.780        0.000
  YS02001629           JUNCTION        2.15          0.470        0.000
  YS02001633           JUNCTION        2.38          1.060        0.000
  YS02001641           JUNCTION        2.38          0.992        0.108
  YS02001644           JUNCTION        2.38          0.920        0.000
  YS02001647           JUNCTION        2.22          0.792        0.108
  YS02001649           JUNCTION        2.35          1.050        0.000
  YS02001652           JUNCTION        2.18          1.130        0.000
  YS02001655           JUNCTION        2.04          1.200        0.000
  YS02001658           JUNCTION        1.82          1.300        0.000
  YS02001661           JUNCTION        1.34          1.390        0.000
  YS02001664           JUNCTION        0.90          1.310        0.000
  YS02001745           JUNCTION        0.94          1.350        0.000
  YS02001748           JUNCTION        1.74          1.190        0.000
  YS02001751           JUNCTION        1.99          1.190        0.010
  YS02001754           JUNCTION        2.13          1.126        0.024
  YS02001757           JUNCTION        2.43          1.210        0.000
  YS02001759           JUNCTION        2.35          1.210        0.000
  YS02001762           JUNCTION        2.32          1.150        0.000
  YS02001765           JUNCTION        2.29          1.100        0.000
  YS02001767           JUNCTION        2.26          1.030        0.000
  YS02001770           JUNCTION        2.24          0.920        0.000
  YS02001774           JUNCTION        2.31          1.050        0.000
  YS02001779           JUNCTION        2.12          0.680        0.000
  YS02001783           JUNCTION        1.95          0.678        0.922
  YS02001784           JUNCTION        1.93          0.548        0.942
  YS02001786           JUNCTION        1.86          0.185        1.245
  YS02001882           JUNCTION        1.92          0.830        0.000
  YS02001884           JUNCTION        1.93          0.870        0.000
  YS02001887           JUNCTION        1.95          0.950        0.000
  YS02001890           JUNCTION        1.96          0.760        0.000
  YS02001895           JUNCTION        1.91          0.573        0.177
  YS02001898           JUNCTION        1.90          0.644        0.096
  YS02001901           JUNCTION        1.94          0.778        0.092
  YS02001904           JUNCTION        1.93          0.673        0.177
  YS02001907           JUNCTION        2.05          0.950        0.000
  YS02001910           JUNCTION        1.96          1.089        0.011
  YS02001915           JUNCTION        1.92          1.000        0.000
  YS02001918           JUNCTION        1.86          0.810        0.000
  YS02001920           JUNCTION        1.87          1.140        0.000
  YS02001923           JUNCTION        1.49          0.820        0.000
  YS02001926           JUNCTION        1.58          0.900        0.000
  YS02001929           JUNCTION        1.20          0.780        0.000
  YS02006553           JUNCTION        2.06          1.190        0.000
  YS02006556           JUNCTION        2.01          1.291        0.059
  YS02006558           JUNCTION        2.00          1.400        0.000
  YS02006561           JUNCTION        1.83          0.404        0.746
  YS02163301           JUNCTION        2.36          1.009        0.021
  YS02163601           JUNCTION        2.42          1.080        0.000
  YS02164001           JUNCTION        2.37          1.035        0.065
  YSB1154              JUNCTION        2.12          1.400        0.000
  YSB1171              JUNCTION        2.12          1.100        0.000
  YSB1174              JUNCTION        2.10          1.250        0.000
  YSB6556              JUNCTION        2.08          1.100        0.000
  
  
  *********************
  Node Flooding Summary
  *********************
  
  Flooding refers to all water that overflows a node, whether it ponds or not.
  --------------------------------------------------------------------------
                                                             Total   Maximum
                                 Maximum   Time of Max       Flood    Ponded
                        Hours       Rate    Occurrence      Volume     Depth
  Node                 Flooded       LPS   days hr:min    10^6 ltr    Meters
  --------------------------------------------------------------------------
  HS02004479              0.01      2.94      0  01:12       0.000     0.000
  HS02004480              0.01      4.84      0  01:12       0.000     0.000
  HS02004770              1.92  29127.59      0  02:13      40.079     0.000
  HS02004777              0.01     11.93      0  02:32       0.000     0.000
  HS02004788              0.71   8700.35      0  02:13       6.402     0.000
  HS02004792              1.89  36105.46      0  02:13      46.821     0.000
  HS02004799              1.77   5754.53      0  02:13       6.259     0.000
  HS02004807              1.57   7229.01      0  02:13       8.421     0.000
  HS02004817              0.01      5.73      0  02:32       0.000     0.000
  HS02004824              1.43  11380.51      0  02:13      12.677     0.000
  HS02004830              0.40    176.16      0  02:15       0.228     0.000
  HS02004837              0.34   4685.99      0  02:13       2.203     0.000
  HS02004842              1.41   2354.69      0  02:14       6.934     0.000
  HS02004848              0.67   9521.70      0  02:13       7.583     0.000
  HS02004856              0.84   2871.95      0  02:13       2.589     0.000
  HS02004862              1.35   6262.79      0  02:13       9.352     0.000
  HS02004870              0.45   2897.26      0  02:13       1.500     0.000
  HS02004876              0.70   4014.94      0  02:13       3.331     0.000
  HS02004881              0.29   1680.63      0  02:13       0.706     0.000
  HS02004901              1.16   5921.86      0  02:13       5.328     0.000
  WS02006109              1.03    449.90      0  02:22       0.900     0.000
  WS02006110              0.01    219.44      0  01:08       0.000     0.000
  WS02006112              0.35   3638.53      0  02:13       1.769     0.000
  WS02006228              0.01      3.87      0  01:10       0.000     0.000
  WS02006229              0.01      2.24      0  01:12       0.000     0.000
  WS02006230              2.01    574.57      0  01:50       3.820     0.000
  WS02006231              0.01    111.65      0  01:08       0.000     0.000
  WS02006232              0.33    300.62      0  01:08       0.001     0.000
  WS02006234              2.05    129.35      0  03:09       0.921     0.000
  WS02006235              0.01     86.74      0  01:10       0.000     0.000
  WS02006239              0.01    401.17      0  01:09       0.001     0.000
  WS02006240              0.01    744.03      0  01:10       0.002     0.000
  WS02006242              2.08    821.62      0  01:10       1.031     0.000
  WS02006243              0.01    601.82      0  01:10       0.008     0.000
  WS02006245              0.01    170.22      0  01:10       0.001     0.000
  WS02006247              0.01    210.39      0  01:10       0.000     0.000
  WS02006248              2.17    378.91      0  01:12       2.589     0.000
  WS02006249              2.82   1350.24      0  02:26      10.098     0.000
  WS02006251              0.54    110.87      0  02:12       0.123     0.000
  WS02006252              1.90    820.21      0  01:58       4.670     0.000
  WS02006253              0.01     99.31      0  01:13       0.000     0.000
  WS02006256              2.25    293.19      0  00:00       1.646     0.000
  YS02001580              0.01     92.10      0  01:10       0.000     0.000
  YS02001583              0.01    177.68      0  01:10       0.000     0.000
  YS02001586              2.03  14387.33      0  02:13      19.748     0.000
  YS02001590              0.01      4.90      0  01:10       0.000     0.000
  YS02001600              0.01      4.85      0  01:10       0.000     0.000
  YS02001601              2.10  21934.77      0  02:13      28.232     0.000
  YS02001602              2.07     62.06      0  03:05       0.452     0.000
  YS02001605              0.01     12.23      0  01:11       0.000     0.000
  YS02001607              0.01    271.70      0  01:11       0.001     0.000
  YS02001610              2.01    958.14      0  02:32       5.800     0.000
  YS02001613              0.01      0.60      0  02:32       0.000     0.000
  YS02001616              0.24     13.70      0  02:32       0.001     0.000
  YS02001619              1.36  23523.27      0  02:13      25.264     0.000
  YS02001622              0.01      0.71      0  01:51       0.000     0.000
  YS02001625              2.00   1505.27      0  01:40       9.377     0.000
  YS02001629              1.42    686.80      0  02:31       2.504     0.000
  YS02001633              0.80  14413.91      0  02:13      11.299     0.000
  YS02001644              1.77  16237.30      0  02:13      25.612     0.000
  YS02001649              0.88   2389.70      0  02:23       5.736     0.000
  YS02001652              0.01      3.12      0  01:50       0.000     0.000
  YS02001655              0.58    302.86      0  02:24       0.598     0.000
  YS02001658              0.52     51.80      0  02:26       0.096     0.000
  YS02001661              0.01      1.32      0  01:51       0.000     0.000
  YS02001664              0.52  11030.99      0  02:13       6.824     0.000
  YS02001745              0.26   5099.76      0  02:13       2.023     0.000
  YS02001748              0.36    768.81      0  02:17       0.836     0.000
  YS02001757              0.49    783.60      0  02:22       1.022     0.000
  YS02001759              0.54   9334.59      0  02:13       5.787     0.000
  YS02001762              0.01     15.54      0  02:32       0.000     0.000
  YS02001765              0.01      8.82      0  02:32       0.000     0.000
  YS02001767              0.01      3.81      0  02:32       0.000     0.000
  YS02001770              1.18  16734.67      0  02:13      17.392     0.000
  YS02001774              0.01      1.85      0  01:51       0.000     0.000
  YS02001779              1.72    851.47      0  01:40       4.449     0.000
  YS02001882              0.01     13.72      0  02:32       0.000     0.000
  YS02001884              0.01      0.76      0  01:55       0.000     0.000
  YS02001887              0.56   9702.49      0  02:13       6.100     0.000
  YS02001890              1.65   1536.29      0  01:55       4.962     0.000
  YS02001907              1.82   4668.51      0  02:26      19.687     0.000
  YS02001915              1.07  14935.95      0  02:13      14.439     0.000
  YS02001918              0.70    459.30      0  02:22       0.984     0.000
  YS02001920              0.01     36.26      0  01:14       0.000     0.000
  YS02001923              0.01     46.90      0  01:14       0.000     0.000
  YS02001926              0.01    620.88      0  01:14       0.001     0.000
  YS02001929              0.53   6333.05      0  02:13       4.127     0.000
  YS02006553              0.01      0.48      0  01:51       0.000     0.000
  YS02006558              0.50  13565.14      0  02:13       8.145     0.000
  YS02163601              0.01      1.63      0  01:12       0.000     0.000
  YSB1154                 0.88   6241.38      0  02:13       5.008     0.000
  YSB1171                 1.81   1635.01      0  01:51       8.149     0.000
  YSB1174                 0.70   4773.24      0  02:13       3.340     0.000
  YSB6556                 0.97     85.86      0  01:53       0.284     0.000
  CC-storage              0.78    410.62      0  02:15       0.763     0.000
  
  
  **********************
  Storage Volume Summary
  **********************
  
  ------------------------------------------------------------------------------------------------
                         Average    Avg   Evap  Exfil     Maximum    Max    Time of Max    Maximum
                          Volume   Pcnt   Pcnt   Pcnt      Volume   Pcnt     Occurrence    Outflow
  Storage Unit           1000 m³   Full   Loss   Loss     1000 m³   Full    days hr:min        LPS
  ------------------------------------------------------------------------------------------------
  CC-storage               4.732   73.8    0.0    0.0       6.410  100.0       0  02:15    1783.54
  JK-storage               0.122   41.7    0.0    0.0       0.213   73.0       0  01:38    2300.00
  
  
  ***********************
  Outfall Loading Summary
  ***********************
  
  -----------------------------------------------------------
                         Flow       Avg       Max       Total
                         Freq      Flow      Flow      Volume
  Outfall Node           Pcnt       LPS       LPS    10^6 ltr
  -----------------------------------------------------------
  CC-1                  81.24    683.00    683.00       6.835
  CC-2                  79.10    683.00    683.00       6.648
  JK-1                  53.89   1000.00   1000.00       6.661
  JK-2                   0.31   1000.00   1000.00       0.048
  WS02004402            95.17   1366.67   2426.78      16.031
  -----------------------------------------------------------
  System                61.94   4732.67   4792.78      36.223
  
  
  ********************
  Link Flow Summary
  ********************
  
  -----------------------------------------------------------------------------
                                 Maximum  Time of Max   Maximum    Max/    Max/
                                  |Flow|   Occurrence   |Veloc|    Full    Full
  Link                 Type          LPS  days hr:min     m/sec    Flow   Depth
  -----------------------------------------------------------------------------
  HS02004478WS02006287 CONDUIT   2409.19     0  01:10      2.99    0.67    1.00
  HS02004479HS02004480 CONDUIT    465.43     0  01:13      0.66    0.45    1.00
  HS02004480HS02004478 CONDUIT   2285.60     0  01:10      3.27    9.63    1.00
  HS02004770HS02004777 CONDUIT    820.08     0  01:09      1.17    1.50    1.00
  HS02004777HS02004785 CONDUIT    826.68     0  01:09      1.30    1.02    1.00
  HS02004785HS02004788 CONDUIT    807.12     0  01:09      1.37    6.09    1.00
  HS02004788HS02004792 CONDUIT   1089.71     0  02:28      1.56    0.72    1.00
  HS02004792HS02004799 CONDUIT   1740.76     0  01:10      2.49    1.07    1.00
  HS02004799HS02004480 CONDUIT   1914.04     0  01:10      2.73    2.42    1.00
  HS02004802HS02004478 CONDUIT   1240.68     0  02:56      1.77    1.09    1.00
  HS02004807HS02004802 CONDUIT   1240.24     0  02:57      1.77    2.37    1.00
  HS02004817HS02004807 CONDUIT   1197.05     0  02:50      1.71    0.71    1.00
  HS02004817HS02004824 CONDUIT   1201.68     0  02:32      1.72    0.54    1.00
  HS02004824HS02004830 CONDUIT    872.23     0  02:16      1.25    1.14    1.00
  HS02004830HS02004837 CONDUIT   1048.24     0  02:15      1.50    1.04    1.00
  HS02004837HS02004842 CONDUIT   1084.84     0  02:15      1.55    0.65    1.00
  HS02004842HS02004848 CONDUIT   1269.84     0  02:26      1.81    0.74    1.00
  HS02004848HS02004852 CONDUIT   1054.42     0  01:12      1.67    1.19    1.00
  HS02004852HS02004856 CONDUIT   1056.96     0  01:13      1.51    1.21    1.00
  HS02004856HS02004862 CONDUIT   1100.51     0  01:12      1.73    1.10    1.00
  HS02004862HS02004870 CONDUIT   1230.14     0  01:13      1.96    1.33    1.00
  HS02004870HS02004876 CONDUIT   1305.04     0  01:13      2.00    0.87    1.00
  HS02004876HS02004881 CONDUIT   1520.67     0  02:50      2.34   16.17    1.00
  HS02004881HS02006253 CONDUIT   1743.19     0  02:30      2.97    0.34    1.00
  HS02004901HS02004770 CONDUIT    469.86     0  02:13      0.67    1.00    1.00
  WS02004401WS02004402 CONDUIT   2426.78     0  02:22      3.17    2.91    0.94
  WS02006109WS02006110 CONDUIT   1343.98     0  01:10      2.67    2.58    1.00
  WS02006110WS02006113 CONDUIT   1340.22     0  03:02      2.67    1.22    1.00
  WS02006111WS02006112 CONDUIT   1346.20     0  01:10      2.68    0.64    1.00
  WS02006112WS02006115 CONDUIT   2426.78     0  02:22      3.09    1.43    1.00
  WS02006113WS02006111 CONDUIT   1342.46     0  01:10      2.84    1.61    1.00
  WS02006115WS02006116 CONDUIT   2426.78     0  02:22      3.09    3.11    1.00
  WS02006116WS02004401 CONDUIT   2426.78     0  02:22      3.09    3.34    1.00
  WS02006228WS02006109 CONDUIT   1342.48     0  01:10      2.67    5.87    1.00
  WS02006229WS02006228 CONDUIT   1344.29     0  01:10      2.67    4.45    1.00
  WS02006230WS02006229 CONDUIT   1016.83     0  01:50      2.64   22.63    1.00
  WS02006231WS02006230 CONDUIT    714.48     0  01:09      1.86   10.84    1.00
  WS02006232WS02006231 CONDUIT    714.25     0  01:09      1.86    1.50    1.00
  WS02006234WS02006232 CONDUIT    714.09     0  01:09      2.08    1.44    1.00
  WS02006235WS02006234 CONDUIT    743.90     0  01:09      1.96    7.85    1.00
  WS02006238WS02006235 CONDUIT    687.01     0  01:09      2.17    1.53    1.00
  WS02006239WS02006238 CONDUIT    721.87     0  01:09      2.37    2.31    1.00
  WS02006240WS02006239 CONDUIT    704.14     0  01:10      1.99    2.22    1.00
  WS02006242WS02006240 CONDUIT    528.30     0  01:10      1.39    2.10    1.00
  WS02006243WS02006242 CONDUIT    413.61     0  04:00      1.34    0.88    1.00
  WS02006245WS02006243 CONDUIT    413.60     0  04:00      1.39    1.22    1.00
  WS02006247WS02006245 CONDUIT    443.51     0  01:10      1.37    3.52    1.00
  WS02006248WS02006247 CONDUIT    472.96     0  01:10      1.38    1.03    1.00
  WS02006249WS02006248 CONDUIT    500.05     0  01:10      1.38    2.74    1.00
  WS02006251WS02006249 CONDUIT   1411.09     0  02:00      3.67    4.07    1.00
  WS02006252WS02006251 CONDUIT    420.21     0  01:57     24.89    1.54    1.00
  WS02006253WS02006251 CONDUIT   1942.19     0  02:12      5.05    5.82    1.00
  WS02006256WS02006235 CONDUIT    288.93     0  00:00      4.23    3.06    1.00
  WS02006280WS02006229 CONDUIT   2328.14     0  02:58      5.32    0.50    1.00
  WS02006284WS02006280 CONDUIT   2326.41     0  02:57      3.35    0.97    1.00
  WS02006287WS02006284 CONDUIT   2327.04     0  02:58      3.10    1.08    1.00
  YS02001580YS02001583 CONDUIT    146.09     0  01:10      0.86    0.57    1.00
  YS02001583YS02001586 CONDUIT    183.41     0  01:10      0.87    0.28    1.00
  YS02001586YS02001590 CONDUIT    320.44     0  02:32      1.32    0.56    1.00
  YS02001590YS02001593 CONDUIT    319.75     0  02:32      1.13    2.01    1.00
  YS02001593YS02001596 CONDUIT    318.60     0  01:32      1.77    0.50    1.00
  YS02001596YS02001600 CONDUIT    318.74     0  01:51      1.32    0.62    1.00
  YS02001600YS02001601 CONDUIT    318.64     0  01:51      1.13    0.55    1.00
  YS02001601YS02001602 CONDUIT    603.57     0  01:10      2.13    2.18    1.00
  YS02001602YS02001605 CONDUIT    603.82     0  01:10      2.14   12.78    1.00
  YS02001605YS02001607 CONDUIT    603.56     0  01:10      2.13    3.31    1.00
  YS02001607YS02001610 CONDUIT    579.11     0  01:10      0.88    0.55    1.00
  YS02001610YS02001613 CONDUIT    622.22     0  02:32      0.81    0.72    1.00
  YS02001613YS02001616 CONDUIT    621.99     0  02:32      0.85    0.53    1.00
  YS02001616YS02001619 CONDUIT    632.04     0  02:32      0.90    1.10    1.00
  YS02001619YS02001622 CONDUIT   1053.98     0  01:40      1.86    1.55    1.00
  YS02001622YS02001625 CONDUIT   1053.71     0  01:41      1.34    0.56    1.00
  YS02001625YS02001629 CONDUIT    912.74     0  01:13      1.16    0.43    1.00
  YS02001629YS02163301 CONDUIT   1138.95     0  01:51      1.45    1.40    1.00
  YS02001633YS02163601 CONDUIT   1399.50     0  01:13      1.78    1.47    1.00
  YS02001641YS02001644 CONDUIT   1397.21     0  01:13      1.78    4.52    1.00
  YS02001644YS02001647 CONDUIT   1847.07     0  01:13      2.36    1.08    1.00
  YS02001647YS02001649 CONDUIT   1843.95     0  01:13      2.39    0.97    1.00
  YS02001649YS02001757 CONDUIT   2195.59     0  01:13      2.80    1.33    1.00
  YS02001652YS02001649 CONDUIT   2429.24     0  01:56      3.09    1.20    1.00
  YS02001655YS02001652 CONDUIT   2429.13     0  01:55      3.09    1.18    1.00
  YS02001658YS02001655 CONDUIT   2731.29     0  02:26      3.48    1.16    1.00
  YS02001661YS02001658 CONDUIT   2783.08     0  02:26      3.54    1.09    1.00
  YS02001664YS02001661 CONDUIT   2783.08     0  02:26      3.54    0.87    1.00
  YS02001745YS02001748 CONDUIT   3122.08     0  02:13      3.98    1.20    1.00
  YS02001748YS02001751 CONDUIT   2353.31     0  02:10      3.00    1.19    1.00
  YS02001751YS02001754 CONDUIT   2353.32     0  02:10      3.00    1.13    1.00
  YS02001754YS02001757 CONDUIT   2353.58     0  02:18      3.00    0.95    1.00
  YS02001757CaochengTiaoxuchi CONDUIT   3379.28     0  01:17      4.31    1.46    1.00
  YS02001759YS02001757 CONDUIT   1474.25     0  01:55      1.88    1.05    1.00
  YS02001762YS02001759 CONDUIT    773.11     0  01:19      0.98    0.89    1.00
  YS02001765YS02001762 CONDUIT    773.55     0  01:19      0.98    0.73    1.00
  YS02001767YS02001765 CONDUIT    774.54     0  01:19      0.99    0.97    1.00
  YS02001770YS02001767 CONDUIT    773.10     0  01:19      1.00    3.06    1.00
  YS02001774YS02001770 CONDUIT    853.45     0  01:51      1.09    0.55    1.00
  YS02001779YS02001774 CONDUIT    851.76     0  01:40      1.08    0.43    1.00
  YS02001783YS02001784 CONDUIT   1321.16     0  02:26      2.63    1.82    1.00
  YS02001784YS02001785 CONDUIT   1322.22     0  02:26      2.63    3.08    1.00
  YS02001786YS02001788 CONDUIT   1322.32     0  02:24      2.74    2.55    0.92
  YS02001788YS02001790 CONDUIT   1328.75     0  02:25      2.90    0.98    0.87
  YS02001790YS02001791 CONDUIT   1368.65     0  02:22      3.53    1.49    0.73
  YS02001791YS02001793 CONDUIT   1357.20     0  02:21      6.88    0.58    0.46
  YS02001793JiankangQianchi CONDUIT   1378.83     0  02:25      2.73    0.11    0.66
  YS02001882YS02001884 CONDUIT     97.79     0  01:11      0.44    0.11    1.00
  YS02001884YS02001887 CONDUIT    176.79     0  01:10      0.38    0.24    1.00
  YS02001887YS02001890 CONDUIT   2052.03     0  02:04      2.61    3.51    1.00
  YS02001890YS02001895 CONDUIT    521.42     0  01:50      0.66    0.24    1.00
  YS02001895YS02001898 CONDUIT    518.94     0  01:32      0.74    0.90    1.00
  YS02001898YS02001901 CONDUIT    521.10     0  01:12      0.66    0.34    1.00
  YS02001901YS02001904 CONDUIT    525.54     0  01:12      0.67    0.82    1.00
  YS02001904YS02001907 CONDUIT    531.19     0  01:12      0.68    0.19    1.00
  YS02001907YS02006553 CONDUIT   2159.67     0  02:22      2.40    2.54    1.00
  YS02001910YS02001907 CONDUIT   1993.04     0  01:43      2.54    1.12    1.00
  YS02001915YS02001910 CONDUIT   1993.18     0  01:46      2.54    0.99    1.00
  YS02001918YS02001915 CONDUIT   1221.69     0  02:20      1.56    0.67    1.00
  YS02001920YS02001918 CONDUIT   1680.99     0  02:27      2.14    1.63    1.00
  YS02001923YS02001920 CONDUIT   1678.12     0  02:22      2.14    0.75    1.00
  YS02001926YS02001923 CONDUIT   1678.09     0  02:27      2.14    2.40    1.00
  YS02001929YS02001926 CONDUIT   1678.03     0  02:22      2.14    0.80    1.00
  YS02006553YS02006556 CONDUIT   2159.67     0  02:22      2.75    1.85    1.00
  YS02006556YS02006558 CONDUIT   2159.67     0  02:22      2.75    1.71    1.00
  YS02006558YS02006561 CONDUIT   1321.16     0  02:25      4.67    2.92    1.00
  YS02006561YS02001783 CONDUIT   1321.24     0  02:22      2.63    0.68    1.00
  YS02163301YS02001633 CONDUIT   1138.86     0  02:31      1.45    1.07    1.00
  YS02163601YS02164001 CONDUIT   1398.73     0  01:13      1.78    1.24    1.00
  YS02164001YS02001641 CONDUIT   1398.03     0  01:13      1.78    1.91    1.00
  YSB1154YSB6556       CONDUIT    725.69     0  02:35      1.89    1.30    1.00
  YSB1171HS02004479    CONDUIT    465.28     0  01:13      0.93    0.31    1.00
  YSB1174YSB1171       CONDUIT    750.69     0  01:56      1.95    1.15    1.00
  YSB6556YSB1171       CONDUIT    639.84     0  02:37      1.66    0.66    1.00
  CC-R1                PUMP       683.00     0  00:00              1.00
  CC-R2                PUMP       683.00     0  00:00              1.00
  CC-S1                PUMP       200.00     0  00:00              1.00
  CC-S2                PUMP       200.00     0  00:00              1.00
  JK-R1                PUMP      1000.00     0  00:00              1.00
  JK-R2                PUMP      1000.00     0  00:00              1.00
  JK-S                 PUMP       300.00     0  00:00              1.00
  
  
  ***************************
  Flow Classification Summary
  ***************************
  
  -------------------------------------------------------------------------------------
                      Adjusted    ---------- Fraction of Time in Flow Class ---------- 
                       /Actual         Up    Down  Sub   Sup   Up    Down  Norm  Inlet 
  Conduit               Length    Dry  Dry   Dry   Crit  Crit  Crit  Crit  Ltd   Ctrl  
  -------------------------------------------------------------------------------------
  HS02004478WS02006287    1.00   0.27  0.00  0.00  0.54  0.20  0.00  0.00  0.05  0.00
  HS02004479HS02004480    1.00   0.07  0.00  0.00  0.93  0.00  0.00  0.00  0.18  0.00
  HS02004480HS02004478    1.00   0.25  0.00  0.00  0.52  0.00  0.00  0.23  0.00  0.00
  HS02004770HS02004777    1.00   0.00  0.25  0.00  0.75  0.00  0.00  0.00  0.01  0.00
  HS02004777HS02004785    1.00   0.00  0.00  0.00  1.00  0.00  0.00  0.00  0.18  0.00
  HS02004785HS02004788    1.00   0.00  0.00  0.00  1.00  0.00  0.00  0.00  0.00  0.00
  HS02004788HS02004792    1.00   0.00  0.00  0.00  0.98  0.02  0.00  0.00  0.45  0.00
  HS02004792HS02004799    1.00   0.00  0.00  0.00  0.98  0.02  0.00  0.00  0.43  0.00
  HS02004799HS02004480    1.00   0.01  0.07  0.00  0.73  0.00  0.20  0.00  0.00  0.00
  HS02004802HS02004478    1.00   0.25  0.01  0.00  0.74  0.00  0.00  0.00  0.01  0.00
  HS02004807HS02004802    1.00   0.25  0.00  0.00  0.73  0.00  0.00  0.02  0.00  0.00
  HS02004817HS02004807    1.00   0.00  0.25  0.00  0.75  0.00  0.00  0.00  0.01  0.00
  HS02004817HS02004824    1.00   0.00  0.00  0.00  1.00  0.00  0.00  0.00  0.42  0.00
  HS02004824HS02004830    1.00   0.00  0.00  0.00  1.00  0.00  0.00  0.00  0.00  0.00
  HS02004830HS02004837    1.00   0.00  0.00  0.00  1.00  0.00  0.00  0.00  0.42  0.00
  HS02004837HS02004842    1.00   0.00  0.00  0.00  0.99  0.01  0.00  0.00  0.21  0.00
  HS02004842HS02004848    1.00   0.00  0.25  0.00  0.75  0.00  0.00  0.00  0.01  0.00
  HS02004848HS02004852    1.00   0.25  0.00  0.00  0.75  0.00  0.00  0.00  0.19  0.00
  HS02004852HS02004856    1.00   0.25  0.01  0.00  0.74  0.00  0.00  0.00  0.15  0.00
  HS02004856HS02004862    1.00   0.00  0.27  0.00  0.73  0.00  0.00  0.00  0.20  0.00
  HS02004862HS02004870    1.00   0.00  0.00  0.00  1.00  0.00  0.00  0.00  0.02  0.00
  HS02004870HS02004876    1.00   0.01  0.00  0.00  0.97  0.02  0.00  0.00  0.37  0.00
  HS02004876HS02004881    1.00   0.04  0.00  0.00  0.81  0.15  0.00  0.00  0.00  0.00
  HS02004881HS02006253    1.00   0.07  0.04  0.00  0.71  0.02  0.00  0.17  0.21  0.00
  HS02004901HS02004770    1.00   0.25  0.00  0.00  0.75  0.00  0.00  0.00  0.01  0.00
  WS02004401WS02004402    1.00   0.05  0.00  0.00  0.95  0.00  0.00  0.00  0.00  0.00
  WS02006109WS02006110    1.00   0.00  0.02  0.00  0.96  0.00  0.02  0.00  0.00  0.00
  WS02006110WS02006113    1.00   0.02  0.02  0.00  0.96  0.00  0.00  0.00  0.00  0.00
  WS02006111WS02006112    1.00   0.04  0.00  0.00  0.95  0.00  0.00  0.00  0.35  0.00
  WS02006112WS02006115    1.00   0.04  0.01  0.00  0.95  0.00  0.01  0.00  0.00  0.00
  WS02006113WS02006111    1.00   0.04  0.00  0.00  0.53  0.43  0.00  0.00  0.06  0.00
  WS02006115WS02006116    1.00   0.05  0.00  0.00  0.78  0.00  0.00  0.18  0.00  0.00
  WS02006116WS02004401    1.00   0.05  0.00  0.00  0.95  0.00  0.00  0.00  0.00  0.00
  WS02006228WS02006109    1.00   0.00  0.00  0.00  1.00  0.00  0.00  0.00  0.01  0.00
  WS02006229WS02006228    1.00   0.00  0.00  0.00  0.98  0.00  0.00  0.02  0.00  0.00
  WS02006230WS02006229    1.00   0.00  0.00  0.00  0.97  0.00  0.00  0.03  0.00  0.00
  WS02006231WS02006230    1.00   0.00  0.00  0.00  0.72  0.00  0.27  0.00  0.00  0.00
  WS02006232WS02006231    1.00   0.00  0.00  0.00  0.99  0.00  0.01  0.00  0.00  0.00
  WS02006234WS02006232    1.00   0.00  0.00  0.00  1.00  0.00  0.00  0.00  0.02  0.00
  WS02006235WS02006234    1.00   0.00  0.00  0.00  0.93  0.00  0.07  0.00  0.00  0.00
  WS02006238WS02006235    1.00   0.00  0.00  0.00  1.00  0.00  0.00  0.00  0.00  0.00
  WS02006239WS02006238    1.00   0.00  0.00  0.00  1.00  0.00  0.00  0.00  0.13  0.00
  WS02006240WS02006239    1.00   0.00  0.00  0.00  0.83  0.00  0.00  0.17  0.01  0.00
  WS02006242WS02006240    1.00   0.01  0.00  0.00  0.98  0.00  0.01  0.00  0.00  0.00
  WS02006243WS02006242    1.00   0.01  0.00  0.00  0.98  0.00  0.00  0.02  0.21  0.00
  WS02006245WS02006243    1.00   0.00  0.00  0.00  0.90  0.00  0.00  0.09  0.00  0.00
  WS02006247WS02006245    1.00   0.00  0.00  0.00  0.98  0.00  0.00  0.02  0.00  0.00
  WS02006248WS02006247    1.00   0.00  0.00  0.00  0.98  0.00  0.00  0.02  0.15  0.00
  WS02006249WS02006248    1.00   0.00  0.00  0.00  0.78  0.00  0.22  0.00  0.00  0.00
  WS02006251WS02006249    1.00   0.00  0.00  0.00  1.00  0.00  0.00  0.00  0.21  0.00
  WS02006252WS02006251    1.00   0.00  0.26  0.00  0.71  0.00  0.03  0.00  0.00  0.00
  WS02006253WS02006251    1.00   0.00  0.00  0.00  0.92  0.00  0.07  0.00  0.00  0.00
  WS02006256WS02006235    1.00   0.00  0.00  0.00  1.00  0.00  0.00  0.00  0.00  0.00
  WS02006280WS02006229    1.00   0.27  0.00  0.00  0.53  0.05  0.00  0.15  0.00  0.00
  WS02006284WS02006280    1.00   0.27  0.00  0.00  0.52  0.00  0.00  0.21  0.00  0.00
  WS02006287WS02006284    1.00   0.21  0.06  0.00  0.52  0.20  0.00  0.02  0.19  0.00
  YS02001580YS02001583    1.00   0.29  0.00  0.00  0.71  0.00  0.00  0.00  0.15  0.00
  YS02001583YS02001586    1.00   0.25  0.04  0.00  0.71  0.00  0.00  0.00  0.16  0.00
  YS02001586YS02001590    1.00   0.25  0.00  0.00  0.73  0.01  0.00  0.01  0.15  0.00
  YS02001590YS02001593    1.00   0.25  0.00  0.00  0.57  0.00  0.17  0.00  0.00  0.00
  YS02001593YS02001596    1.00   0.26  0.00  0.00  0.59  0.01  0.00  0.14  0.02  0.00
  YS02001596YS02001600    1.00   0.26  0.00  0.00  0.66  0.01  0.00  0.07  0.04  0.00
  YS02001600YS02001601    1.00   0.25  0.01  0.00  0.74  0.00  0.00  0.00  0.01  0.00
  YS02001601YS02001602    1.00   0.25  0.00  0.00  0.75  0.00  0.00  0.00  0.00  0.00
  YS02001602YS02001605    1.00   0.25  0.00  0.00  0.74  0.00  0.00  0.00  0.00  0.00
  YS02001605YS02001607    1.00   0.26  0.00  0.00  0.74  0.00  0.00  0.00  0.00  0.00
  YS02001607YS02001610    1.00   0.26  0.00  0.00  0.74  0.00  0.00  0.00  0.00  0.00
  YS02001610YS02001613    1.00   0.25  0.00  0.00  0.75  0.00  0.00  0.00  0.00  0.00
  YS02001613YS02001616    1.00   0.25  0.00  0.00  0.75  0.00  0.00  0.00  0.00  0.00
  YS02001616YS02001619    1.00   0.25  0.00  0.00  0.75  0.00  0.00  0.00  0.00  0.00
  YS02001619YS02001622    1.00   0.25  0.00  0.00  0.74  0.01  0.00  0.00  0.00  0.00
  YS02001622YS02001625    1.00   0.25  0.00  0.00  0.74  0.01  0.00  0.00  0.01  0.00
  YS02001625YS02001629    1.00   0.25  0.03  0.00  0.65  0.00  0.07  0.00  0.00  0.00
  YS02001629YS02163301    1.00   0.26  0.01  0.00  0.74  0.00  0.00  0.00  0.00  0.00
  YS02001633YS02163601    1.00   0.00  0.01  0.00  0.99  0.00  0.00  0.00  0.25  0.00
  YS02001641YS02001644    1.00   0.00  0.01  0.00  0.99  0.00  0.00  0.00  0.00  0.00
  YS02001644YS02001647    1.00   0.00  0.27  0.00  0.73  0.00  0.00  0.00  0.00  0.00
  YS02001647YS02001649    1.00   0.00  0.26  0.00  0.73  0.00  0.00  0.00  0.05  0.00
  YS02001649YS02001757    1.00   0.00  0.00  0.00  1.00  0.00  0.00  0.00  0.27  0.00
  YS02001652YS02001649    1.00   0.00  0.00  0.00  0.98  0.02  0.00  0.00  0.23  0.00
  YS02001655YS02001652    1.00   0.00  0.00  0.00  0.70  0.00  0.00  0.29  0.03  0.00
  YS02001658YS02001655    1.00   0.00  0.26  0.00  0.67  0.07  0.00  0.00  0.08  0.00
  YS02001661YS02001658    1.00   0.26  0.00  0.00  0.61  0.13  0.00  0.00  0.13  0.00
  YS02001664YS02001661    1.00   0.25  0.00  0.00  0.70  0.05  0.00  0.00  0.30  0.00
  YS02001745YS02001748    1.00   0.00  0.00  0.00  0.61  0.00  0.00  0.38  0.07  0.00
  YS02001748YS02001751    1.00   0.00  0.00  0.00  0.94  0.06  0.00  0.00  0.30  0.00
  YS02001751YS02001754    1.00   0.00  0.00  0.00  0.70  0.00  0.00  0.30  0.03  0.00
  YS02001754YS02001757    1.00   0.00  0.00  0.00  0.99  0.01  0.00  0.00  0.28  0.00
  YS02001757CaochengTiaoxuchi    1.00   0.00  0.00  0.00  0.96  0.04  0.00  0.00  0.27  0.00
  YS02001759YS02001757    1.00   0.00  0.00  0.00  0.98  0.02  0.00  0.00  0.13  0.00
  YS02001762YS02001759    1.00   0.00  0.00  0.00  1.00  0.00  0.00  0.00  0.02  0.00
  YS02001765YS02001762    1.00   0.00  0.00  0.00  1.00  0.00  0.00  0.00  0.23  0.00
  YS02001767YS02001765    1.00   0.00  0.00  0.00  1.00  0.00  0.00  0.00  0.00  0.00
  YS02001770YS02001767    1.00   0.00  0.00  0.00  1.00  0.00  0.00  0.00  0.00  0.00
  YS02001774YS02001770    1.00   0.00  0.25  0.00  0.74  0.00  0.00  0.00  0.00  0.00
  YS02001779YS02001774    1.00   0.00  0.00  0.00  1.00  0.00  0.00  0.00  0.26  0.00
  YS02001783YS02001784    1.00   0.00  0.27  0.00  0.72  0.00  0.00  0.00  0.03  0.00
  YS02001784YS02001785    1.00   0.00  0.00  0.00  1.00  0.00  0.00  0.00  0.25  0.00
  YS02001786YS02001788    1.00   0.00  0.00  0.00  0.77  0.23  0.00  0.00  0.00  0.00
  YS02001788YS02001790    1.00   0.00  0.00  0.00  0.51  0.49  0.00  0.00  0.44  0.00
  YS02001790YS02001791    1.00   0.00  0.00  0.00  0.03  0.97  0.00  0.00  0.18  0.00
  YS02001791YS02001793    1.00   0.00  0.00  0.00  0.00  1.00  0.00  0.00  0.04  0.00
  YS02001793JiankangQianchi    1.00   0.00  0.00  0.00  0.60  0.40  0.00  0.00  0.84  0.00
  YS02001882YS02001884    1.00   0.26  0.00  0.00  0.74  0.00  0.00  0.00  0.00  0.00
  YS02001884YS02001887    1.00   0.12  0.11  0.00  0.77  0.00  0.00  0.00  0.00  0.00
  YS02001887YS02001890    1.00   0.00  0.00  0.00  0.94  0.00  0.06  0.00  0.00  0.00
  YS02001890YS02001895    1.00   0.01  0.26  0.00  0.74  0.00  0.00  0.00  0.00  0.00
  YS02001895YS02001898    1.00   0.26  0.00  0.00  0.72  0.00  0.01  0.00  0.00  0.00
  YS02001898YS02001901    1.00   0.27  0.00  0.00  0.73  0.00  0.00  0.00  0.00  0.00
  YS02001901YS02001904    1.00   0.27  0.00  0.00  0.73  0.00  0.00  0.00  0.00  0.00
  YS02001904YS02001907    1.00   0.01  0.26  0.00  0.73  0.00  0.00  0.00  0.00  0.00
  YS02001907YS02006553    1.00   0.01  0.04  0.00  0.95  0.00  0.00  0.00  0.01  0.00
  YS02001910YS02001907    1.00   0.00  0.00  0.00  0.94  0.01  0.00  0.05  0.20  0.00
  YS02001915YS02001910    1.00   0.00  0.00  0.00  0.96  0.04  0.00  0.00  0.21  0.00
  YS02001918YS02001915    1.00   0.00  0.01  0.00  0.96  0.03  0.00  0.00  0.22  0.00
  YS02001920YS02001918    1.00   0.00  0.01  0.00  0.99  0.00  0.00  0.00  0.00  0.00
  YS02001923YS02001920    1.00   0.00  0.00  0.00  1.00  0.00  0.00  0.00  0.50  0.00
  YS02001926YS02001923    1.00   0.00  0.15  0.00  0.48  0.00  0.37  0.00  0.00  0.00
  YS02001929YS02001926    1.00   0.00  0.25  0.00  0.74  0.01  0.00  0.00  0.27  0.00
  YS02006553YS02006556    1.00   0.03  0.00  0.00  0.97  0.00  0.00  0.00  0.06  0.00
  YS02006556YS02006558    1.00   0.00  0.01  0.00  0.99  0.00  0.00  0.00  0.00  0.00
  YS02006558YS02006561    1.00   0.27  0.00  0.00  0.47  0.25  0.00  0.00  0.19  0.00
  YS02006561YS02001783    1.00   0.27  0.00  0.00  0.51  0.22  0.00  0.00  0.18  0.00
  YS02163301YS02001633    1.00   0.00  0.26  0.00  0.74  0.00  0.00  0.00  0.00  0.00
  YS02163601YS02164001    1.00   0.00  0.16  0.00  0.84  0.00  0.00  0.00  0.00  0.00
  YS02164001YS02001641    1.00   0.02  0.15  0.00  0.84  0.00  0.00  0.00  0.09  0.00
  YSB1154YSB6556          1.00   0.25  0.00  0.00  0.75  0.00  0.00  0.00  0.01  0.00
  YSB1171HS02004479       1.00   0.08  0.00  0.00  0.89  0.00  0.00  0.03  0.16  0.00
  YSB1174YSB1171          1.00   0.10  0.09  0.00  0.81  0.00  0.00  0.00  0.00  0.00
  YSB6556YSB1171          1.00   0.08  0.17  0.00  0.75  0.00  0.00  0.00  0.00  0.00
  
  
  *************************
  Conduit Surcharge Summary
  *************************
  
  ----------------------------------------------------------------------------
                                                           Hours        Hours 
                         --------- Hours Full --------   Above Full   Capacity
  Conduit                Both Ends  Upstream  Dnstream   Normal Flow   Limited
  ----------------------------------------------------------------------------
  HS02004478WS02006287        1.93      1.93      2.01      0.01         0.01
  HS02004479HS02004480        2.05      2.05      2.07      0.01         0.01
  HS02004480HS02004478        1.99      2.05      1.99      2.46         1.99
  HS02004770HS02004777        2.00      2.00      2.00      0.07         0.04
  HS02004777HS02004785        1.96      1.96      2.00      0.01         0.01
  HS02004785HS02004788        1.95      1.96      1.95      2.00         0.75
  HS02004788HS02004792        1.95      1.95      2.03      0.01         0.01
  HS02004792HS02004799        2.03      2.03      2.09      0.01         0.02
  HS02004799HS02004480        2.05      2.05      2.09      2.12         0.01
  HS02004802HS02004478        2.00      2.00      2.05      1.62         0.01
  HS02004807HS02004802        2.03      2.03      2.04      1.81         1.81
  HS02004817HS02004807        2.03      2.03      2.26      0.01         0.01
  HS02004817HS02004824        1.95      1.95      2.26      0.01         0.01
  HS02004824HS02004830        1.93      1.93      1.95      0.48         0.49
  HS02004830HS02004837        1.90      1.90      1.93      0.34         0.35
  HS02004837HS02004842        1.90      1.90      1.98      0.01         0.01
  HS02004842HS02004848        1.87      1.87      1.98      0.01         0.01
  HS02004848HS02004852        1.87      1.87      1.89      0.03         0.05
  HS02004852HS02004856        1.89      1.89      1.90      0.68         0.64
  HS02004856HS02004862        1.87      1.87      1.90      0.02         0.01
  HS02004862HS02004870        1.90      1.90      1.91      0.58         0.56
  HS02004870HS02004876        1.91      1.91      1.97      0.01         0.01
  HS02004876HS02004881        1.95      1.97      1.95      2.41         1.95
  HS02004881HS02006253        1.95      1.95      2.82      0.01         0.01
  HS02004901HS02004770        1.99      1.99      2.00      0.99         0.01
  WS02004401WS02004402        0.01      0.73      0.01      2.32         0.01
  WS02006109WS02006110        2.86      2.86      2.87      2.87         0.01
  WS02006110WS02006113        2.08      2.08      2.87      1.55         0.01
  WS02006111WS02006112        1.99      1.99      2.85      0.01         0.01
  WS02006112WS02006115        1.81      1.81      2.37      1.12         0.01
  WS02006113WS02006111        2.01      2.08      2.01      2.32         2.01
  WS02006115WS02006116        1.22      1.85      1.22      2.35         1.22
  WS02006116WS02004401        0.73      1.72      0.73      2.42         0.73
  WS02006228WS02006109        2.87      2.87      2.87      2.98         2.87
  WS02006229WS02006228        2.87      2.87      2.87      2.91         2.87
  WS02006230WS02006229        2.87      2.87      2.87      3.19         0.75
  WS02006231WS02006230        2.76      2.77      2.85      3.09         2.10
  WS02006232WS02006231        2.85      2.85      2.85      0.04         0.32
  WS02006234WS02006232        2.84      2.84      2.85      0.03         0.01
  WS02006235WS02006234        2.84      2.84      2.84      3.01         2.08
  WS02006238WS02006235        2.84      2.84      2.84      0.02         0.74
  WS02006239WS02006238        2.83      2.83      2.84      2.68         0.54
  WS02006240WS02006239        2.83      2.83      2.83      2.67         0.53
  WS02006242WS02006240        2.83      2.83      2.83      2.73         2.08
  WS02006243WS02006242        2.82      2.82      2.83      0.01         0.01
  WS02006245WS02006243        2.82      2.82      2.82      0.57         0.50
  WS02006247WS02006245        2.82      2.82      2.82      2.90         0.69
  WS02006248WS02006247        2.82      2.82      2.82      0.01         0.01
  WS02006249WS02006248        2.82      2.82      2.82      0.75         0.01
  WS02006251WS02006249        2.82      2.83      2.82      2.95         2.82
  WS02006252WS02006251        2.95      2.95      2.95      2.46         1.39
  WS02006253WS02006251        2.83      2.83      2.84      2.12         0.01
  WS02006256WS02006235        3.06      3.07      3.50      0.25         0.01
  WS02006280WS02006229        2.05      2.05      2.09      0.01         0.01
  WS02006284WS02006280        2.02      2.02      2.05      0.01         0.01
  WS02006287WS02006284        1.98      1.98      2.03      1.84         1.84
  YS02001580YS02001583        2.09      2.09      2.10      0.01         0.01
  YS02001583YS02001586        2.09      2.09      2.17      0.01         0.01
  YS02001586YS02001590        2.17      2.17      2.22      0.01         0.01
  YS02001590YS02001593        2.22      2.22      2.23      2.28         0.01
  YS02001593YS02001596        2.23      2.23      2.29      0.01         0.01
  YS02001596YS02001600        2.31      2.31      2.38      0.01         0.01
  YS02001600YS02001601        2.41      2.41      2.57      0.01         0.01
  YS02001601YS02001602        2.52      2.52      2.59      2.33         0.01
  YS02001602YS02001605        2.50      2.50      2.52      2.94         0.01
  YS02001605YS02001607        2.48      2.50      2.50      2.45         2.40
  YS02001607YS02001610        2.22      2.22      2.24      0.01         0.01
  YS02001610YS02001613        2.22      2.22      2.24      0.01         0.01
  YS02001613YS02001616        2.19      2.19      2.22      0.01         0.01
  YS02001616YS02001619        2.18      2.18      2.19      1.38         1.18
  YS02001619YS02001622        2.18      2.18      2.19      2.14         2.05
  YS02001622YS02001625        2.19      2.19      2.33      0.01         0.01
  YS02001625YS02001629        2.15      2.15      2.33      0.01         0.01
  YS02001629YS02163301        2.34      2.34      2.36      1.00         0.05
  YS02001633YS02163601        2.38      2.38      2.42      0.07         0.09
  YS02001641YS02001644        2.38      2.38      2.38      2.63         2.33
  YS02001644YS02001647        2.22      2.22      2.38      0.04         0.01
  YS02001647YS02001649        2.22      2.22      2.35      0.01         0.01
  YS02001649YS02001757        2.35      2.35      2.43      0.12         0.09
  YS02001652YS02001649        2.20      2.20      2.35      0.67         0.68
  YS02001655YS02001652        2.04      2.04      2.18      0.66         0.66
  YS02001658YS02001655        1.82      1.82      2.04      0.59         0.59
  YS02001661YS02001658        1.34      1.34      1.82      0.55         0.55
  YS02001664YS02001661        0.90      0.90      1.55      0.01         0.01
  YS02001745YS02001748        0.93      0.93      1.74      0.32         0.32
  YS02001748YS02001751        1.80      1.80      1.98      0.42         0.42
  YS02001751YS02001754        1.98      1.98      2.13      0.40         0.40
  YS02001754YS02001757        2.17      2.17      2.43      0.01         0.01
  YS02001757CaochengTiaoxuchi        2.35      2.43      2.70      0.92         0.81
  YS02001759YS02001757        2.35      2.35      2.43      0.12         0.08
  YS02001762YS02001759        2.32      2.32      2.35      0.01         0.03
  YS02001765YS02001762        2.28      2.29      2.32      0.01         0.01
  YS02001767YS02001765        2.26      2.26      2.29      0.01         0.05
  YS02001770YS02001767        2.26      2.26      2.26      1.73         0.76
  YS02001774YS02001770        2.24      2.24      2.31      0.01         0.01
  YS02001779YS02001774        2.12      2.12      2.31      0.01         0.01
  YS02001783YS02001784        1.93      1.95      1.93      2.02         1.93
  YS02001784YS02001785        1.86      1.93      1.86      2.10         1.86
  YS02001786YS02001788        0.01      1.86      0.01      2.07         0.01
  YS02001790YS02001791        0.01      0.01      0.01      1.92         0.01
  YS02001793JiankangQianchi        0.01      0.01      3.71      0.01         0.01
  YS02001882YS02001884        1.92      1.92      1.93      0.01         0.01
  YS02001884YS02001887        1.94      1.94      1.95      0.01         0.01
  YS02001887YS02001890        1.96      1.96      1.96      1.48         0.01
  YS02001890YS02001895        1.91      1.91      1.97      0.01         0.01
  YS02001895YS02001898        1.90      1.90      1.91      0.01         0.01
  YS02001898YS02001901        1.91      1.91      1.94      0.01         0.01
  YS02001901YS02001904        1.93      1.93      1.94      0.01         0.01
  YS02001904YS02001907        1.93      1.93      2.06      0.01         0.01
  YS02001907YS02006553        2.10      2.10      2.12      0.78         0.78
  YS02001910YS02001907        1.96      1.96      2.05      1.16         1.16
  YS02001915YS02001910        1.92      1.92      1.96      0.01         0.06
  YS02001918YS02001915        1.86      1.86      1.92      0.01         0.01
  YS02001920YS02001918        1.86      1.86      1.87      0.78         0.01
  YS02001923YS02001920        1.83      1.83      1.87      0.01         0.01
  YS02001926YS02001923        1.49      1.49      1.58      1.05         0.01
  YS02001929YS02001926        1.21      1.21      1.58      0.01         0.01
  YS02006553YS02006556        2.01      2.01      2.06      0.69         0.69
  YS02006556YS02006558        2.04      2.04      2.06      0.66         0.01
  YS02006558YS02006561        1.88      2.00      1.88      2.09         1.88
  YS02006561YS02001783        1.83      1.83      1.95      0.01         0.01
  YS02163301YS02001633        2.36      2.36      2.40      0.82         0.01
  YS02163601YS02164001        2.37      2.37      2.42      0.05         0.01
  YS02164001YS02001641        2.37      2.37      2.38      1.25         1.26
  YSB1154YSB6556              2.08      2.08      2.12      1.07         0.01
  YSB1171HS02004479           2.03      2.03      2.12      0.01         0.01
  YSB1174YSB1171              2.10      2.10      2.20      0.77         0.77
  YSB6556YSB1171              2.08      2.08      2.26      0.01         0.01
  
  
  ***************
  Pumping Summary
  ***************
  
  ---------------------------------------------------------------------------------------------------------
                                                  Min       Avg       Max     Total     Power    % Time Off
                        Percent   Number of      Flow      Flow      Flow    Volume     Usage    Pump Curve
  Pump                 Utilized   Start-Ups       LPS       LPS       LPS  10^6 ltr     Kw-hr    Low   High
  ---------------------------------------------------------------------------------------------------------
  CC-R1                   69.50           2      0.00    683.00    683.00     6.835    138.18    0.0   61.2
  CC-R2                   67.60           2      0.00    683.00    683.00     6.649    134.72    0.0   62.9
  CC-S1                   72.17           2      0.00    200.00    200.00     2.079     11.87    0.0   54.2
  CC-S2                   70.86           2      0.00    200.00    200.00     2.041     11.53    0.0   55.2
  JK-R1                   46.25           5      0.00   1000.00   1000.00     6.659     65.90    0.0    0.0
  JK-R2                    0.33           1      0.00   1000.00   1000.00     0.047      0.36    0.0    0.0
  JK-S                    56.31           2      0.00    300.00    300.00     2.433     38.32    0.0    0.0
  

  Analysis begun on:  Tue Jun  9 17:05:10 2026
  Analysis ended on:  Tue Jun  9 17:05:10 2026
  Total elapsed time: < 1 sec