
  EPA STORM WATER MANAGEMENT MODEL - VERSION 5.2 (Build 5.2.4)
  PYSWMM TOOLKIT API - VERSION v1.0 (2026-02-26)
  ------------------------------------------------------------

  WARNING 03: negative offset ignored for Link YS02001904YS02001907
  
  ****************
  Analysis Options
  ****************
  Flow Units ............... LPS
  Process Models:
    Rainfall/Runoff ........ YES
    RDII ................... NO
    Snowmelt ............... NO
    Groundwater ............ NO
    Flow Routing ........... YES
    Ponding Allowed ........ NO
    Water Quality .......... NO
  Infiltration Method ...... HORTON
  Flow Routing Method ...... DYNWAVE
  Surcharge Method ......... EXTRAN
  Starting Date ............ 08/28/2015 08:00:00
  Ending Date .............. 08/28/2015 12:00:00
  Antecedent Dry Days ...... 8.0
  Report Time Step ......... 00:01:00
  Wet Time Step ............ 00:01:00
  Dry Time Step ............ 00:01:00
  Routing Time Step ........ 30.00 sec
  Variable Time Step ....... YES
  Maximum Trials ........... 8
  Number of Threads ........ 4
  Head Tolerance ........... 0.001500 m
  
  
  **************************        Volume         Depth
  Runoff Quantity Continuity     hectare-m            mm
  **************************     ---------       -------
  Total Precipitation ......        81.244      1341.148
  Evaporation Loss .........         0.000         0.000
  Infiltration Loss ........         0.194         3.198
  Surface Runoff ...........        80.874      1335.037
  Final Storage ............         0.203         3.355
  Continuity Error (%) .....        -0.033
  
  
  **************************        Volume        Volume
  Flow Routing Continuity        hectare-m      10^6 ltr
  **************************     ---------     ---------
  Dry Weather Inflow .......         0.026         0.261
  Wet Weather Inflow .......        80.873       808.743
  Groundwater Inflow .......         0.000         0.000
  RDII Inflow ..............         0.000         0.000
  External Inflow ..........         0.015         0.148
  External Outflow .........         3.944        39.438
  Flooding Loss ............        76.751       767.520
  Evaporation Loss .........         0.000         0.000
  Exfiltration Loss ........         0.000         0.000
  Initial Stored Volume ....         0.243         2.431
  Final Stored Volume ......         0.469         4.693
  Continuity Error (%) .....        -0.009
  
  
  *************************
  Highest Continuity Errors
  *************************
  Node YS02001583 (-15.29%)
  Node YS02001884 (8.47%)
  
  
  ***************************
  Time-Step Critical Elements
  ***************************
  Link YS02001791YS02001793 (55.22%)
  Link WS02006280WS02006229 (20.58%)
  Link WS02006238WS02006235 (12.57%)
  Link YS02006556YS02006558 (1.63%)
  Link YS02001745YS02001748 (1.27%)
  
  
  ********************************
  Highest Flow Instability Indexes
  ********************************
  Link WS02006238WS02006235 (28)
  Link WS02006229WS02006228 (27)
  Link YS02001605YS02001607 (27)
  Link YS02001602YS02001605 (27)
  Link YS02001774YS02001770 (26)
  
  
  *********************************
  Most Frequent Nonconverging Nodes
  *********************************
  Node CC-1 (15.93%)
  Node CC-2 (15.93%)
  Node JK-1 (15.93%)
  Node JK-2 (15.93%)
  Node WS02004402 (15.93%)
  
  
  *************************
  Routing Time Step Summary
  *************************
  Minimum Time Step           :     0.03 sec
  Average Time Step           :     2.16 sec
  Maximum Time Step           :     9.91 sec
  % of Time in Steady State   :     0.00
  Average Iterations per Step :     3.87
  % of Steps Not Converging   :    15.93
  Time Step Frequencies       :
     30.000 - 13.228 sec      :     0.00 %
     13.228 -  5.833 sec      :     3.56 %
      5.833 -  2.572 sec      :     5.06 %
      2.572 -  1.134 sec      :    84.93 %
      1.134 -  0.500 sec      :     6.45 %
  
  
  ***************************
  Subcatchment Runoff Summary
  ***************************
  
  ------------------------------------------------------------------------------------------------------------------------------
                            Total      Total      Total      Total     Imperv       Perv      Total       Total     Peak  Runoff
                           Precip      Runon       Evap      Infil     Runoff     Runoff     Runoff      Runoff   Runoff   Coeff
  Subcatchment                 mm         mm         mm         mm         mm         mm         mm    10^6 ltr      LPS
  ------------------------------------------------------------------------------------------------------------------------------
  sub0                    1341.15       0.00       0.00       1.01    1246.36      92.84    1339.20        1.08   773.64   0.999
  sub1                    1341.15       0.00       0.00       1.58    1192.23     145.67    1337.90        8.90  5922.90   0.998
  sub10                   1341.15       0.00       0.00       1.15    1232.49     106.00    1338.49       14.76  9939.23   0.998
  sub11                   1341.15       0.00       0.00       1.15    1232.69     106.03    1338.72       15.56 10706.03   0.998
  sub12                   1341.15       0.00       0.00       1.87    1165.89     172.30    1338.19       11.70  8245.42   0.998
  sub14                   1341.15       0.00       0.00       1.29    1219.20     119.25    1338.46       12.74  8677.32   0.998
  sub15                   1341.15       0.00       0.00       4.31     937.81     396.31    1334.12       22.95 14640.62   0.995
  sub16                   1341.15       0.00       0.00       4.74     897.84     436.50    1334.34       13.97  9328.16   0.995
  sub17                   1341.15       0.00       0.00       4.60     911.22     423.23    1334.45       11.45  7616.23   0.995
  sub2                    1341.15       0.00       0.00       5.31     843.73     486.48    1330.20       12.40  7251.74   0.992
  sub22                   1341.15       0.00       0.00       6.18     763.75     567.20    1330.95       84.08 51238.25   0.992
  sub23                   1341.15       0.00       0.00       5.31     844.16     488.76    1332.92       63.58 40543.80   0.994
  sub3                    1341.15       0.00       0.00       5.31     843.33     484.45    1327.78       29.89 16569.51   0.990
  sub4                    1341.15       0.00       0.00       1.58    1190.59     145.38    1335.97       27.87 16877.80   0.996
  sub5                    1341.15       0.00       0.00       1.01    1245.81      92.76    1338.56       15.17 10131.64   0.998
  sub60                   1341.15       0.00       0.00       1.72    1179.14     158.99    1338.12       17.58 12129.15   0.998
  sub61                   1341.15       0.00       0.00       2.44    1112.18     225.14    1337.32       24.54 16905.98   0.997
  sub62                   1341.15       0.00       0.00       1.15    1232.43     105.99    1338.43       36.67 24537.81   0.998
  sub63                   1341.15       0.00       0.00       4.17     951.36     383.52    1334.88       30.30 20078.42   0.995
  sub64                   1341.15       0.00       0.00       2.15    1138.48     198.46    1336.94       32.11 20811.77   0.997
  sub65                   1341.15       0.00       0.00       1.87    1165.08     172.00    1337.08       36.81 23575.90   0.997
  sub66                   1341.15       0.00       0.00       4.17     950.29     381.05    1331.33       62.08 36034.92   0.993
  sub67                   1341.15       0.00       0.00       1.15    1232.87     106.07    1338.94       24.90 17532.91   0.998
  sub68                   1341.15       0.00       0.00       2.01    1152.22     185.39    1337.61       36.81 24932.19   0.997
  sub69                   1341.15       0.00       0.00       2.15    1139.39     198.94    1338.33       49.55 31558.03   0.998
  sub7                    1341.15       0.00       0.00       1.29    1219.36     119.29    1338.65        4.51  3130.19   0.998
  sub70                   1341.15       0.00       0.00       4.88     883.94     445.74    1329.69       38.41 20894.55   0.991
  sub71                   1341.15       0.00       0.00       1.15    1232.02     105.94    1337.96       34.99 22494.24   0.998
  sub72                   1341.15       0.00       0.00       1.01    1244.81      92.67    1337.48       18.39 11530.91   0.997
  sub8                    1341.15       0.00       0.00       1.29    1219.25     119.26    1338.51        8.55  5857.31   0.998
  sub9                    1341.15       0.00       0.00       1.29    1219.22     119.26    1338.48        6.44  4395.56   0.998
  
  
  ******************
  Node Depth Summary
  ******************
  
  ---------------------------------------------------------------------------------
                                 Average  Maximum  Maximum  Time of Max    Reported
                                   Depth    Depth      HGL   Occurrence   Max Depth
  Node                 Type       Meters   Meters   Meters  days hr:min      Meters
  ---------------------------------------------------------------------------------
  HS02004478           JUNCTION     1.00     1.67    10.89     0  01:06        1.61
  HS02004479           JUNCTION     1.09     1.78    10.99     0  01:05        1.68
  HS02004480           JUNCTION     1.05     1.76    11.00     0  01:05        1.66
  HS02004770           JUNCTION     0.93     1.42    11.25     0  01:04        1.42
  HS02004777           JUNCTION     0.97     1.48    11.28     0  01:04        1.48
  HS02004785           JUNCTION     0.88     1.49    11.39     0  01:04        1.40
  HS02004788           JUNCTION     0.87     1.42    11.32     0  01:04        1.42
  HS02004792           JUNCTION     1.02     1.60    11.12     0  01:04        1.60
  HS02004799           JUNCTION     1.16     1.76    10.97     0  01:05        1.76
  HS02004802           JUNCTION     1.16     1.87    11.00     0  01:06        1.82
  HS02004807           JUNCTION     1.22     1.92    11.09     0  01:04        1.92
  HS02004817           JUNCTION     1.60     2.44    11.29     0  01:05        2.42
  HS02004824           JUNCTION     1.20     2.01    11.41     0  01:05        2.01
  HS02004830           JUNCTION     1.20     2.03    11.50     0  01:05        2.03
  HS02004837           JUNCTION     1.16     2.04    11.62     0  01:06        2.04
  HS02004842           JUNCTION     1.41     2.22    11.49     0  01:06        2.22
  HS02004848           JUNCTION     1.18     2.07    11.67     0  01:06        2.07
  HS02004852           JUNCTION     1.20     2.09    11.60     0  01:06        2.08
  HS02004856           JUNCTION     1.22     2.07    11.50     0  01:06        2.07
  HS02004862           JUNCTION     1.18     2.00    11.38     0  01:06        2.00
  HS02004870           JUNCTION     1.21     2.10    11.39     0  01:06        2.10
  HS02004876           JUNCTION     1.33     2.26    11.29     0  01:06        2.26
  HS02004881           JUNCTION     1.19     2.15    11.18     0  01:06        2.15
  HS02004901           JUNCTION     0.92     1.42    11.28     0  01:04        1.42
  WS02004401           JUNCTION     0.79     1.19     7.19     0  01:30        1.19
  WS02006109           JUNCTION     1.98     2.64     9.26     0  01:04        2.64
  WS02006110           JUNCTION     1.74     2.76     9.34     0  01:05        2.48
  WS02006111           JUNCTION     1.04     2.68     9.39     0  01:06        1.99
  WS02006112           JUNCTION     1.60     2.68     8.56     0  01:27        2.68
  WS02006113           JUNCTION     1.18     2.73     9.62     0  01:05        1.99
  WS02006115           JUNCTION     1.09     1.88     8.02     0  01:28        1.88
  WS02006116           JUNCTION     0.98     1.65     7.69     0  01:06        1.60
  WS02006228           JUNCTION     2.25     3.03     9.68     0  01:05        3.03
  WS02006229           JUNCTION     2.38     3.25     9.94     0  01:05        3.25
  WS02006230           JUNCTION     2.05     2.65     9.39     0  01:05        2.65
  WS02006231           JUNCTION     1.65     2.24     9.36     0  01:05        2.24
  WS02006232           JUNCTION     1.69     2.18     9.22     0  01:05        2.18
  WS02006234           JUNCTION     1.52     1.96     9.12     0  01:05        1.96
  WS02006235           JUNCTION     1.51     2.00     9.16     0  01:06        1.99
  WS02006238           JUNCTION     1.52     2.15     9.29     0  01:06        1.95
  WS02006239           JUNCTION     1.41     2.03     9.24     0  01:06        1.87
  WS02006240           JUNCTION     1.30     2.10     9.39     0  01:06        1.71
  WS02006242           JUNCTION     1.28     1.55     8.82     0  01:06        1.55
  WS02006243           JUNCTION     1.13     1.48     8.90     0  01:06        1.40
  WS02006245           JUNCTION     1.06     1.36     8.84     0  01:06        1.27
  WS02006247           JUNCTION     1.05     1.29     8.79     0  01:06        1.24
  WS02006248           JUNCTION     0.96     1.10     8.69     0  01:05        1.10
  WS02006249           JUNCTION     0.96     1.09     8.69     0  01:05        1.09
  WS02006251           JUNCTION     1.65     2.21     9.88     0  01:06        2.21
  WS02006252           JUNCTION     1.12     1.50     9.74     0  00:00        1.50
  WS02006253           JUNCTION     2.30     3.49    11.13     0  01:36        3.49
  WS02006256           JUNCTION     1.91     2.35     9.28     0  00:00        2.35
  WS02006280           JUNCTION     1.12     1.83    10.10     0  01:05        1.79
  WS02006284           JUNCTION     1.34     2.08    10.48     0  01:05        1.99
  WS02006287           JUNCTION     1.12     1.82    10.78     0  01:05        1.77
  YS02001580           JUNCTION     0.51     1.05     9.59     0  01:05        0.86
  YS02001583           JUNCTION     0.55     1.14     9.64     0  01:05        0.82
  YS02001586           JUNCTION     0.79     1.13     9.30     0  01:04        1.13
  YS02001590           JUNCTION     0.98     1.40     9.26     0  01:04        1.40
  YS02001593           JUNCTION     0.90     1.46     9.32     0  01:04        1.28
  YS02001596           JUNCTION     1.17     1.80     9.22     0  01:04        1.67
  YS02001600           JUNCTION     1.35     1.87     9.00     0  01:04        1.86
  YS02001601           JUNCTION     1.55     2.06     8.90     0  01:04        2.06
  YS02001602           JUNCTION     1.40     1.87     8.77     0  01:06        1.87
  YS02001605           JUNCTION     1.32     1.78     8.68     0  01:06        1.78
  YS02001607           JUNCTION     1.21     1.68     8.53     0  01:06        1.65
  YS02001610           JUNCTION     1.25     1.68     8.48     0  01:06        1.68
  YS02001613           JUNCTION     1.23     1.70     8.54     0  01:06        1.68
  YS02001616           JUNCTION     1.17     1.61     8.52     0  01:06        1.61
  YS02001619           JUNCTION     1.17     1.61     8.54     0  01:06        1.61
  YS02001622           JUNCTION     1.15     1.62     8.52     0  01:06        1.58
  YS02001625           JUNCTION     1.35     1.78     8.38     0  01:06        1.78
  YS02001629           JUNCTION     1.38     1.85     8.40     0  01:06        1.85
  YS02001633           JUNCTION     1.53     2.08     8.53     0  01:06        2.08
  YS02001641           JUNCTION     1.45     2.07     8.50     0  01:07        2.07
  YS02001644           JUNCTION     1.43     1.92     8.35     0  01:06        1.92
  YS02001647           JUNCTION     1.28     1.90     8.51     0  01:06        1.79
  YS02001649           JUNCTION     1.48     2.05     8.44     0  01:07        2.05
  YS02001652           JUNCTION     1.42     2.16     8.76     0  01:06        2.15
  YS02001655           JUNCTION     1.33     2.20     9.05     0  01:06        2.20
  YS02001658           JUNCTION     1.23     2.30     9.44     0  01:07        2.30
  YS02001661           JUNCTION     1.19     2.44     9.85     0  01:25        2.44
  YS02001664           JUNCTION     0.97     2.31    10.23     0  01:22        2.31
  YS02001745           JUNCTION     0.92     2.35     9.87     0  01:07        2.35
  YS02001748           JUNCTION     1.14     2.27     9.35     0  01:07        2.27
  YS02001751           JUNCTION     1.22     2.20     9.08     0  01:07        2.19
  YS02001754           JUNCTION     1.37     2.20     8.81     0  01:07        2.18
  YS02001757           JUNCTION     1.59     2.21     8.47     0  01:06        2.21
  YS02001759           JUNCTION     1.55     2.21     8.57     0  01:21        2.21
  YS02001762           JUNCTION     1.51     2.15     8.55     0  01:07        2.15
  YS02001765           JUNCTION     1.46     2.10     8.55     0  01:06        2.08
  YS02001767           JUNCTION     1.42     2.03     8.52     0  01:06        2.02
  YS02001770           JUNCTION     1.40     1.95     8.44     0  01:06        1.95
  YS02001774           JUNCTION     1.44     2.05     8.47     0  01:06        2.05
  YS02001779           JUNCTION     1.19     1.68     8.37     0  01:07        1.68
  YS02001783           JUNCTION     0.88     1.51     7.65     0  01:06        1.49
  YS02001784           JUNCTION     0.81     1.33     7.40     0  01:06        1.32
  YS02001786           JUNCTION     0.63     1.36     7.39     0  01:06        0.99
  YS02001788           JUNCTION     0.44     0.70     6.67     0  02:02        0.69
  YS02001790           JUNCTION     0.49     0.80     6.44     0  02:01        0.80
  YS02001791           JUNCTION     0.30     0.48     5.95     0  01:23        0.47
  YS02001793           JUNCTION     0.17     0.37     5.20     0  02:12        0.35
  YS02001882           JUNCTION     1.12     1.83     8.55     0  01:05        1.83
  YS02001884           JUNCTION     1.20     1.93     8.55     0  01:05        1.93
  YS02001887           JUNCTION     1.28     2.00     8.54     0  01:05        2.00
  YS02001890           JUNCTION     1.22     1.81     8.32     0  01:05        1.81
  YS02001895           JUNCTION     0.99     1.75     8.50     0  01:05        1.75
  YS02001898           JUNCTION     1.00     1.77     8.51     0  01:05        1.77
  YS02001901           JUNCTION     1.10     1.87     8.48     0  01:06        1.87
  YS02001904           JUNCTION     1.07     1.85     8.48     0  01:06        1.85
  YS02001907           JUNCTION     1.37     1.96     8.25     0  01:06        1.96
  YS02001910           JUNCTION     1.32     2.03     8.53     0  01:06        2.03
  YS02001915           JUNCTION     1.24     2.00     8.72     0  01:07        2.00
  YS02001918           JUNCTION     1.05     1.81     8.88     0  01:06        1.81
  YS02001920           JUNCTION     1.17     2.14     9.15     0  01:07        2.02
  YS02001923           JUNCTION     1.03     2.03     9.29     0  01:06        1.92
  YS02001926           JUNCTION     1.00     1.90     9.35     0  01:06        1.88
  YS02001929           JUNCTION     0.88     1.78     9.47     0  01:07        1.78
  YS02006553           JUNCTION     1.42     2.19     8.47     0  01:06        2.19
  YS02006556           JUNCTION     1.47     2.33     8.64     0  01:25        2.33
  YS02006558           JUNCTION     1.55     2.50     8.77     0  01:22        2.50
  YS02006561           JUNCTION     0.66     1.28     7.94     0  01:06        1.21
  YS02163301           JUNCTION     1.44     2.03     8.55     0  01:06        1.98
  YS02163601           JUNCTION     1.53     2.08     8.48     0  01:06        2.08
  YS02164001           JUNCTION     1.45     2.10     8.56     0  01:06        2.10
  YSB1154              JUNCTION     1.37     2.10    11.16     0  01:11        2.10
  YSB1171              JUNCTION     1.35     1.95    10.85     0  01:05        1.95
  YSB1174              JUNCTION     1.26     1.95    11.06     0  01:15        1.95
  YSB6556              JUNCTION     1.17     1.80    10.97     0  01:05        1.80
  CC-1                 OUTFALL      0.00     0.00     0.00     0  00:00        0.00
  CC-2                 OUTFALL      0.00     0.00     0.00     0  00:00        0.00
  JK-1                 OUTFALL      0.00     0.00     0.00     0  00:00        0.00
  JK-2                 OUTFALL      0.00     0.00     0.00     0  00:00        0.00
  WS02004402           OUTFALL      0.63     0.88     6.84     0  01:28        0.88
  CC-storage           STORAGE      1.76     2.30     7.80     0  02:06        2.30
  JK-storage           STORAGE      2.69     4.22     5.02     0  02:51        4.18
  
  
  *******************
  Node Inflow Summary
  *******************
  
  -------------------------------------------------------------------------------------------------
                                  Maximum  Maximum                  Lateral       Total        Flow
                                  Lateral    Total  Time of Max      Inflow      Inflow     Balance
                                   Inflow   Inflow   Occurrence      Volume      Volume       Error
  Node                 Type           LPS      LPS  days hr:min    10^6 ltr    10^6 ltr     Percent
  -------------------------------------------------------------------------------------------------
  HS02004478           JUNCTION      0.00  2733.47     0  01:05           0        19.3       0.002
  HS02004479           JUNCTION      0.00   722.44     0  01:05           0         1.9       0.100
  HS02004480           JUNCTION      0.00  2704.39     0  01:05           0        11.5       0.019
  HS02004770           JUNCTION  40543.80 41439.49     0  01:37        63.6        69.3       0.006
  HS02004777           JUNCTION      0.03  1274.19     0  01:04    0.000432        3.03       0.277
  HS02004785           JUNCTION      0.15  1270.55     0  01:04     0.00216        3.02       0.121
  HS02004788           JUNCTION  14642.29 14642.29     0  01:37          23        23.7      -0.002
  HS02004792           JUNCTION  51238.53 52328.24     0  01:37        84.1        92.2      -0.000
  HS02004799           JUNCTION   8677.32  9819.41     0  01:37        12.7        22.7       0.053
  HS02004802           JUNCTION      0.00  1240.13     0  03:03           0        9.42       0.061
  HS02004807           JUNCTION  10706.03 11902.57     0  01:37        15.6        24.6       0.032
  HS02004817           JUNCTION      0.60  1197.04     0  01:12     0.00864        9.06       0.220
  HS02004824           JUNCTION  16877.85 17750.08     0  01:38        27.9        33.2       0.003
  HS02004830           JUNCTION      0.15  1048.39     0  01:41     0.00216        5.76       0.033
  HS02004837           JUNCTION   9945.58  9945.58     0  01:37        14.9        15.1       0.015
  HS02004842           JUNCTION      0.00  2354.69     0  01:40           0        11.7       0.125
  HS02004848           JUNCTION  16569.51 16569.51     0  01:38        29.9          30       0.005
  HS02004852           JUNCTION      0.00  1457.58     0  01:06           0        6.14       0.045
  HS02004856           JUNCTION   4395.56  5276.30     0  01:37        6.44        12.6       0.023
  HS02004862           JUNCTION   7251.94  8414.51     0  01:38        12.4        20.3       0.007
  HS02004870           JUNCTION   5857.31  5857.31     0  01:37        8.55        11.6       0.005
  HS02004876           JUNCTION   5922.90  6848.88     0  01:37         8.9        16.7       0.022
  HS02004881           JUNCTION   3130.19  4120.74     0  01:37        4.51        14.7       0.002
  HS02004901           JUNCTION   9328.16  9328.16     0  01:37          14          14       0.018
  WS02004401           JUNCTION      0.00  2427.33     0  01:28           0        18.1       0.076
  WS02006109           JUNCTION      1.23  1382.91     0  01:06      0.0177        12.5       0.179
  WS02006110           JUNCTION      0.00  1382.51     0  01:06           0        10.9       0.165
  WS02006111           JUNCTION      0.00  1380.41     0  01:06           0        10.9       0.056
  WS02006112           JUNCTION   7616.23  8453.69     0  01:37        11.4        22.3       0.154
  WS02006113           JUNCTION      0.00  1381.16     0  01:06           0        10.9       0.130
  WS02006115           JUNCTION      0.00  2427.15     0  01:28           0        18.1       0.112
  WS02006116           JUNCTION      0.00  2427.45     0  01:29           0        18.1       0.039
  WS02006228           JUNCTION      0.00  1381.23     0  01:06           0        12.5       0.105
  WS02006229           JUNCTION      0.00  2433.79     0  01:05           0        20.3       0.073
  WS02006230           JUNCTION     10.28  1145.86     0  01:05       0.148        8.92       0.241
  WS02006231           JUNCTION      0.00  1118.74     0  01:05           0        4.67       0.257
  WS02006232           JUNCTION      0.00  1127.99     0  01:05           0        4.66       0.357
  WS02006234           JUNCTION      0.00  1006.96     0  01:05           0        4.64       0.308
  WS02006235           JUNCTION      0.00   945.50     0  01:06           0        4.37       0.172
  WS02006238           JUNCTION      0.00  1030.44     0  01:06           0        4.25       0.137
  WS02006239           JUNCTION      0.00   861.96     0  01:06           0        4.24       0.296
  WS02006240           JUNCTION      0.00  1135.57     0  01:06           0        4.22       0.284
  WS02006242           JUNCTION      0.00   931.86     0  01:06           0        4.24       0.234
  WS02006243           JUNCTION      0.00   706.18     0  01:06           0        3.14       0.586
  WS02006245           JUNCTION      0.00   767.82     0  01:06           0        3.16       0.680
  WS02006247           JUNCTION      0.00   767.84     0  01:06           0        3.17       0.391
  WS02006248           JUNCTION      0.00   806.06     0  01:05           0         3.7       0.349
  WS02006249           JUNCTION      0.00  1411.09     0  01:27           0        12.5       0.174
  WS02006251           JUNCTION      0.08  1962.04     0  01:37     0.00111        15.5       0.107
  WS02006252           JUNCTION      0.00   820.21     0  01:40           0           7       0.006
  WS02006253           JUNCTION    773.64  1962.55     0  01:37        1.08          14       0.115
  WS02006256           JUNCTION      0.00   300.00     0  00:00           0        2.58      -0.045
  WS02006280           JUNCTION      0.00  2477.12     0  01:05           0        19.2      -0.026
  WS02006284           JUNCTION      0.10  2669.26     0  01:05     0.00138        19.2       0.016
  WS02006287           JUNCTION      0.00  2674.87     0  01:05           0        19.2       0.079
  YS02001580           JUNCTION      0.00   365.78     0  01:05           0     0.00612      -7.619
  YS02001583           JUNCTION      0.00   357.31     0  01:05           0      0.0159     -13.265
  YS02001586           JUNCTION  20894.55 20894.55     0  01:38        38.4        38.4       0.007
  YS02001590           JUNCTION      0.00   386.99     0  01:04           0        2.91       0.083
  YS02001593           JUNCTION      0.00   335.78     0  01:04           0         2.9       0.035
  YS02001596           JUNCTION      0.00   318.02     0  03:06           0        2.91       0.007
  YS02001600           JUNCTION      0.00   318.03     0  03:11           0        2.92       0.061
  YS02001601           JUNCTION  31558.03 31875.53     0  01:38        49.5        52.5       0.009
  YS02001602           JUNCTION      0.00   638.84     0  01:05           0        3.78       0.153
  YS02001605           JUNCTION      0.00   638.83     0  01:04           0        3.29       0.242
  YS02001607           JUNCTION      0.00   638.75     0  01:05           0        3.28       0.277
  YS02001610           JUNCTION      0.00   954.75     0  01:29           0        7.61       0.114
  YS02001613           JUNCTION      0.00   620.36     0  01:06           0        5.07       0.160
  YS02001616           JUNCTION      0.00   634.57     0  01:06           0        5.08       0.111
  YS02001619           JUNCTION  36034.92 36034.92     0  01:38        62.1        62.8       0.005
  YS02001622           JUNCTION      0.00  1159.46     0  01:05           0        9.12       0.060
  YS02001625           JUNCTION      0.00  1505.45     0  01:25           0        12.2       0.160
  YS02001629           JUNCTION      0.00  1138.95     0  01:23           0        8.74       0.073
  YS02001633           JUNCTION  23576.10 23576.10     0  01:38        36.8        38.3       0.036
  YS02001641           JUNCTION      0.00  1063.05     0  01:06           0        7.85       0.120
  YS02001644           JUNCTION  20811.81 22563.46     0  01:37        32.1        45.3       0.021
  YS02001647           JUNCTION      0.00  1839.39     0  01:06           0        7.69       0.060
  YS02001649           JUNCTION      0.00  3236.41     0  02:04           0        19.5       0.062
  YS02001652           JUNCTION      0.00  2429.25     0  01:31           0        14.4      -0.044
  YS02001655           JUNCTION      0.15  2731.44     0  01:48     0.00222        15.4       0.008
  YS02001658           JUNCTION      0.00  2783.76     0  01:26           0        15.6      -0.007
  YS02001661           JUNCTION      0.00  2783.77     0  01:26           0        15.6      -0.004
  YS02001664           JUNCTION  20078.42 20078.42     0  01:37        30.3        30.3      -0.006
  YS02001745           JUNCTION  12129.15 12129.15     0  01:37        17.6        17.6       0.008
  YS02001748           JUNCTION      0.04  3122.13     0  01:36    0.000648        12.4      -0.033
  YS02001751           JUNCTION      0.01  2358.56     0  01:27    0.000158          11       0.024
  YS02001754           JUNCTION      0.26  2358.86     0  01:27     0.00374          11      -0.043
  YS02001757           JUNCTION      0.00  3790.45     0  01:27           0        24.6       0.205
  YS02001759           JUNCTION  16906.02 16906.02     0  01:37        24.5        25.2       0.030
  YS02001762           JUNCTION      0.00   751.12     0  01:07           0        4.13       0.159
  YS02001765           JUNCTION      0.00   760.22     0  01:07           0        4.13       0.154
  YS02001767           JUNCTION      0.54   841.01     0  01:06      0.0077        4.14       0.183
  YS02001770           JUNCTION  24537.96 25260.14     0  01:37        36.7        40.2       0.013
  YS02001774           JUNCTION      0.00   852.08     0  01:23           0        5.91       0.118
  YS02001779           JUNCTION      0.01   851.71     0  01:25     7.2e-05        5.87       0.003
  YS02001783           JUNCTION      0.00  1322.04     0  01:24           0        9.99       0.012
  YS02001784           JUNCTION      1.06  1323.22     0  01:24      0.0153          10       0.020
  YS02001786           JUNCTION      0.06  1323.19     0  01:24    0.000811          10       0.018
  YS02001788           JUNCTION      0.07  1323.16     0  02:04     0.00102          10       0.011
  YS02001790           JUNCTION      0.15  1353.12     0  01:42     0.00223          10       0.041
  YS02001791           JUNCTION      0.00  1422.26     0  02:02           0          10      -0.009
  YS02001793           JUNCTION      0.00  1458.76     0  02:02           0          10      -0.004
  YS02001882           JUNCTION      0.00   196.25     0  01:05           0      0.0134      10.064
  YS02001884           JUNCTION      0.00   367.06     0  01:05           0      0.0491       9.250
  YS02001887           JUNCTION  17533.36 17533.36     0  01:37        24.9        24.9       0.023
  YS02001890           JUNCTION      0.00  2052.03     0  01:33           0          12       0.058
  YS02001895           JUNCTION      0.00   678.72     0  01:05           0        3.82       0.145
  YS02001898           JUNCTION      0.00   517.89     0  01:13           0        3.81      -0.018
  YS02001901           JUNCTION      0.00   517.93     0  01:21           0        3.83       0.135
  YS02001904           JUNCTION      0.00   518.05     0  01:13           0        3.86       0.109
  YS02001907           JUNCTION      0.00  4669.76     0  01:31           0        28.4       0.074
  YS02001910           JUNCTION      0.00  1993.14     0  01:14           0        14.5       0.064
  YS02001915           JUNCTION  22494.26 23715.96     0  01:37          35        42.9       0.006
  YS02001918           JUNCTION      0.00  1681.92     0  01:27           0        9.58       0.009
  YS02001920           JUNCTION      2.87  1682.07     0  01:27      0.0413        9.55      -0.019
  YS02001923           JUNCTION      0.04  1679.02     0  01:29    0.000543        9.48      -0.018
  YS02001926           JUNCTION      0.05  1679.02     0  01:27    0.000752        9.46      -0.003
  YS02001929           JUNCTION  11530.91 11530.91     0  01:38        18.4        18.4      -0.021
  YS02006553           JUNCTION      0.00  2160.84     0  01:31           0        11.1       0.124
  YS02006556           JUNCTION      0.00  2161.05     0  01:31           0        11.1       0.084
  YS02006558           JUNCTION  24933.07 24933.07     0  01:37        36.8        37.8       0.009
  YS02006561           JUNCTION      0.00  1322.07     0  01:24           0        9.99       0.002
  YS02163301           JUNCTION      0.00  1138.85     0  01:24           0        8.75       0.112
  YS02163601           JUNCTION      0.11  1080.83     0  01:06     0.00158        7.84       0.200
  YS02164001           JUNCTION      0.00  1073.48     0  01:06           0        7.84       0.126
  YSB1154              JUNCTION  10131.64 10131.64     0  01:37        15.2        15.2       0.012
  YSB1171              JUNCTION      0.00  1629.91     0  01:21           0          11       0.082
  YSB1174              JUNCTION   8245.42  8245.42     0  01:37        11.7        11.7       0.017
  YSB6556              JUNCTION      0.00   725.69     0  01:43           0        5.06       0.063
  CC-1                 OUTFALL       0.00   683.00     0  00:00           0        7.08       0.000
  CC-2                 OUTFALL       0.00   683.00     0  00:00           0        6.91       0.000
  JK-1                 OUTFALL       0.00  1000.00     0  00:00           0        7.34       0.000
  JK-2                 OUTFALL       0.00  1000.00     0  00:00           0      0.0483       0.000
  WS02004402           OUTFALL       0.00  2427.26     0  01:28           0        18.1       0.000
  CC-storage           STORAGE       0.00  3659.62     0  01:08           0        22.9       0.038
  JK-storage           STORAGE       0.00  1559.99     0  01:42           0        10.2       0.051
  
  
  **********************
  Node Surcharge Summary
  **********************
  
  Surcharging occurs when water rises above the top of the highest conduit.
  ---------------------------------------------------------------------
                                               Max. Height   Min. Depth
                                   Hours       Above Crown    Below Rim
  Node                 Type      Surcharged         Meters       Meters
  ---------------------------------------------------------------------
  HS02004478           JUNCTION        2.08          0.745        0.195
  HS02004479           JUNCTION        2.16          0.982        0.068
  HS02004480           JUNCTION        2.18          1.049        0.051
  HS02004770           JUNCTION        2.14          0.720        0.000
  HS02004777           JUNCTION        2.15          0.780        0.000
  HS02004785           JUNCTION        2.11          0.790        0.000
  HS02004788           JUNCTION        2.10          0.720        0.000
  HS02004792           JUNCTION        2.17          0.900        0.000
  HS02004799           JUNCTION        2.21          1.060        0.000
  HS02004802           JUNCTION        2.19          1.163        0.047
  HS02004807           JUNCTION        2.18          1.220        0.000
  HS02004817           JUNCTION        2.38          1.740        0.000
  HS02004824           JUNCTION        2.11          1.310        0.000
  HS02004830           JUNCTION        2.09          1.330        0.000
  HS02004837           JUNCTION        2.06          1.340        0.000
  HS02004842           JUNCTION        2.14          1.520        0.000
  HS02004848           JUNCTION        2.05          1.370        0.000
  HS02004852           JUNCTION        2.06          1.391        0.029
  HS02004856           JUNCTION        2.05          1.300        0.000
  HS02004862           JUNCTION        2.08          1.300        0.000
  HS02004870           JUNCTION        2.09          1.400        0.000
  HS02004876           JUNCTION        2.13          1.560        0.000
  HS02004881           JUNCTION        2.11          1.450        0.000
  HS02004901           JUNCTION        2.13          0.720        0.000
  WS02004401           JUNCTION        1.27          0.193        1.467
  WS02006109           JUNCTION        2.92          1.820        0.000
  WS02006110           JUNCTION        2.91          1.850        0.000
  WS02006111           JUNCTION        2.12          1.870        0.000
  WS02006112           JUNCTION        2.49          1.680        0.000
  WS02006113           JUNCTION        2.22          1.930        0.000
  WS02006115           JUNCTION        1.97          0.873        1.377
  WS02006116           JUNCTION        1.90          0.592        1.698
  WS02006228           JUNCTION        2.92          2.200        0.000
  WS02006229           JUNCTION        2.23          1.070        0.000
  WS02006230           JUNCTION        2.90          1.570        0.000
  WS02006231           JUNCTION        2.91          1.530        0.000
  WS02006232           JUNCTION        2.91          1.480        0.000
  WS02006234           JUNCTION        2.90          1.240        0.000
  WS02006235           JUNCTION        2.90          1.290        0.000
  WS02006238           JUNCTION        2.90          1.430        0.000
  WS02006239           JUNCTION        2.89          1.290        0.000
  WS02006240           JUNCTION        2.89          1.390        0.000
  WS02006242           JUNCTION        2.89          0.820        0.000
  WS02006243           JUNCTION        2.89          0.770        0.000
  WS02006245           JUNCTION        2.90          0.649        0.201
  WS02006247           JUNCTION        2.90          0.575        0.185
  WS02006248           JUNCTION        2.90          0.380        0.000
  WS02006249           JUNCTION        2.91          0.390        0.000
  WS02006251           JUNCTION        2.90          1.180        0.000
  WS02006252           JUNCTION        3.04          1.100        0.000
  WS02006253           JUNCTION        2.91          2.447        0.033
  WS02006256           JUNCTION        3.56          2.050        0.000
  WS02006280           JUNCTION        2.19          0.780        0.000
  WS02006284           JUNCTION        2.16          0.800        0.000
  WS02006287           JUNCTION        2.13          0.825        0.065
  YS02001580           JUNCTION        2.25          0.450        0.000
  YS02001583           JUNCTION        2.25          0.500        0.000
  YS02001586           JUNCTION        2.32          0.510        0.000
  YS02001590           JUNCTION        2.37          0.750        0.000
  YS02001593           JUNCTION        2.37          0.840        0.000
  YS02001596           JUNCTION        2.43          1.070        0.000
  YS02001600           JUNCTION        2.50          1.190        0.000
  YS02001601           JUNCTION        2.68          1.440        0.000
  YS02001602           JUNCTION        2.64          1.270        0.000
  YS02001605           JUNCTION        2.62          1.180        0.000
  YS02001607           JUNCTION        2.37          0.680        0.000
  YS02001610           JUNCTION        2.39          0.680        0.000
  YS02001613           JUNCTION        2.38          0.700        0.000
  YS02001616           JUNCTION        2.34          0.610        0.000
  YS02001619           JUNCTION        2.34          0.610        0.000
  YS02001622           JUNCTION        2.34          0.620        0.000
  YS02001625           JUNCTION        2.47          0.780        0.000
  YS02001629           JUNCTION        2.31          0.470        0.000
  YS02001633           JUNCTION        2.52          1.060        0.000
  YS02001641           JUNCTION        2.52          1.066        0.034
  YS02001644           JUNCTION        2.51          0.920        0.000
  YS02001647           JUNCTION        2.40          0.900        0.000
  YS02001649           JUNCTION        2.52          1.050        0.000
  YS02001652           JUNCTION        2.37          1.130        0.000
  YS02001655           JUNCTION        2.23          1.200        0.000
  YS02001658           JUNCTION        2.02          1.300        0.000
  YS02001661           JUNCTION        1.89          1.374        0.016
  YS02001664           JUNCTION        1.58          1.310        0.000
  YS02001745           JUNCTION        1.67          1.350        0.000
  YS02001748           JUNCTION        1.98          1.190        0.000
  YS02001751           JUNCTION        2.18          1.200        0.000
  YS02001754           JUNCTION        2.32          1.150        0.000
  YS02001757           JUNCTION        2.60          1.210        0.000
  YS02001759           JUNCTION        2.53          1.210        0.000
  YS02001762           JUNCTION        2.50          1.150        0.000
  YS02001765           JUNCTION        2.47          1.100        0.000
  YS02001767           JUNCTION        2.44          1.030        0.000
  YS02001770           JUNCTION        2.42          0.920        0.000
  YS02001774           JUNCTION        2.48          1.050        0.000
  YS02001779           JUNCTION        2.31          0.680        0.000
  YS02001783           JUNCTION        2.09          0.707        0.893
  YS02001784           JUNCTION        2.08          0.531        0.959
  YS02001786           JUNCTION        2.03          0.562        0.868
  YS02001882           JUNCTION        2.07          0.830        0.000
  YS02001884           JUNCTION        2.08          0.870        0.000
  YS02001887           JUNCTION        2.09          0.950        0.000
  YS02001890           JUNCTION        2.10          0.760        0.000
  YS02001895           JUNCTION        2.06          0.750        0.000
  YS02001898           JUNCTION        2.06          0.740        0.000
  YS02001901           JUNCTION        2.09          0.870        0.000
  YS02001904           JUNCTION        2.08          0.850        0.000
  YS02001907           JUNCTION        2.18          0.950        0.000
  YS02001910           JUNCTION        2.11          1.026        0.074
  YS02001915           JUNCTION        2.07          1.000        0.000
  YS02001918           JUNCTION        2.02          0.810        0.000
  YS02001920           JUNCTION        2.03          1.140        0.000
  YS02001923           JUNCTION        1.92          0.820        0.000
  YS02001926           JUNCTION        1.92          0.900        0.000
  YS02001929           JUNCTION        1.87          0.780        0.000
  YS02006553           JUNCTION        2.18          1.190        0.000
  YS02006556           JUNCTION        2.14          1.294        0.056
  YS02006558           JUNCTION        2.13          1.400        0.000
  YS02006561           JUNCTION        2.00          0.476        0.674
  YS02163301           JUNCTION        2.50          1.030        0.000
  YS02163601           JUNCTION        2.56          1.080        0.000
  YS02164001           JUNCTION        2.51          1.100        0.000
  YSB1154              JUNCTION        2.24          1.400        0.000
  YSB1171              JUNCTION        2.24          1.100        0.000
  YSB1174              JUNCTION        2.22          1.250        0.000
  YSB6556              JUNCTION        2.21          1.100        0.000
  
  
  *********************
  Node Flooding Summary
  *********************
  
  Flooding refers to all water that overflows a node, whether it ponds or not.
  --------------------------------------------------------------------------
                                                             Total   Maximum
                                 Maximum   Time of Max       Flood    Ponded
                        Hours       Rate    Occurrence      Volume     Depth
  Node                 Flooded       LPS   days hr:min    10^6 ltr    Meters
  --------------------------------------------------------------------------
  HS02004770              2.07  41429.63      0  01:37      68.482     0.000
  HS02004777              0.01    401.16      0  01:04       0.002     0.000
  HS02004785              0.01    163.58      0  01:04       0.000     0.000
  HS02004788              1.19  13124.86      0  01:37      13.323     0.000
  HS02004792              2.05  51184.20      0  01:37      82.225     0.000
  HS02004799              1.96   8508.85      0  01:37      11.479     0.000
  HS02004807              1.94  10662.48      0  01:37      15.101     0.000
  HS02004817              0.01    119.15      0  01:05       0.000     0.000
  HS02004824              1.90  16548.90      0  01:38      24.115     0.000
  HS02004830              0.69    655.87      0  01:05       0.393     0.000
  HS02004837              0.58   7807.90      0  01:37       5.240     0.000
  HS02004842              1.92   2354.69      0  01:41      11.380     0.000
  HS02004848              1.11  14416.16      0  01:38      16.364     0.000
  HS02004856              1.40   4270.56      0  01:37       5.070     0.000
  HS02004862              1.91   8413.08      0  01:38      17.204     0.000
  HS02004870              0.72   4769.21      0  01:37       3.395     0.000
  HS02004876              1.19   5856.33      0  01:37       6.603     0.000
  HS02004881              0.51   2929.66      0  01:37       1.752     0.000
  HS02004901              1.90   8852.96      0  01:37      10.555     0.000
  WS02006109              1.80    538.30      0  01:04       1.546     0.000
  WS02006110              0.01    773.87      0  01:05       0.002     0.000
  WS02006111              0.01    202.08      0  01:06       0.000     0.000
  WS02006112              0.59   6022.92      0  01:37       4.192     0.000
  WS02006113              0.01    556.87      0  01:05       0.000     0.000
  WS02006228              0.01     52.61      0  01:05       0.000     0.000
  WS02006229              0.01    127.73      0  01:05       0.001     0.000
  WS02006230              2.14    572.46      0  01:17       4.174     0.000
  WS02006231              0.01    699.24      0  01:05       0.002     0.000
  WS02006232              0.18    829.57      0  01:05       0.004     0.000
  WS02006234              2.18    311.12      0  01:05       0.986     0.000
  WS02006235              0.01    374.93      0  01:06       0.002     0.000
  WS02006238              0.01    353.62      0  01:06       0.001     0.000
  WS02006239              0.01    298.51      0  01:06       0.001     0.000
  WS02006240              0.01    924.21      0  01:06       0.005     0.000
  WS02006242              2.21    926.78      0  01:06       1.140     0.000
  WS02006243              0.01     38.47      0  01:06       0.000     0.000
  WS02006248              2.30    360.61      0  01:11       2.716     0.000
  WS02006249              2.90   1350.24      0  02:15      10.923     0.000
  WS02006251              0.92    130.71      0  01:37       0.220     0.000
  WS02006252              2.07    820.21      0  01:25       5.531     0.000
  WS02006256              2.38    293.19      0  00:00       1.749     0.000
  WS02006280              0.01    391.81      0  01:05       0.001     0.000
  WS02006284              0.01    243.33      0  01:05       0.001     0.000
  YS02001580              0.01    358.28      0  01:05       0.003     0.000
  YS02001583              0.01    164.07      0  01:05       0.001     0.000
  YS02001586              2.21  20576.38      0  01:38      35.509     0.000
  YS02001590              0.01    332.24      0  01:04       0.001     0.000
  YS02001593              0.01    270.99      0  01:04       0.001     0.000
  YS02001596              0.01    177.86      0  01:04       0.000     0.000
  YS02001600              0.01     31.16      0  01:04       0.000     0.000
  YS02001601              2.26  31476.36      0  01:38      48.654     0.000
  YS02001602              2.22     62.16      0  03:03       0.487     0.000
  YS02001605              0.01      9.27      0  01:06       0.000     0.000
  YS02001607              0.01    432.29      0  01:06       0.004     0.000
  YS02001610              2.17    954.57      0  01:22       6.889     0.000
  YS02001613              0.01    363.65      0  01:06       0.001     0.000
  YS02001616              0.15    518.83      0  01:06       0.006     0.000
  YS02001619              1.90  34356.27      0  01:38      49.298     0.000
  YS02001622              0.01    486.57      0  01:06       0.005     0.000
  YS02001625              2.16   1505.24      0  01:28      10.745     0.000
  YS02001629              1.92    687.37      0  01:17       4.220     0.000
  YS02001633              1.37  21532.58      0  01:38      23.074     0.000
  YS02001644              1.98  22561.56      0  01:37      42.972     0.000
  YS02001647              0.01    358.50      0  01:06       0.000     0.000
  YS02001649              1.56   2389.70      0  02:04       9.858     0.000
  YS02001652              0.01    536.31      0  01:06       0.001     0.000
  YS02001655              0.99    948.21      0  01:06       1.021     0.000
  YS02001658              0.89     52.17      0  01:26       0.164     0.000
  YS02001664              0.87  17286.31      0  01:37      14.744     0.000
  YS02001745              0.46   8997.73      0  01:37       5.178     0.000
  YS02001748              0.62    769.43      0  01:32       1.454     0.000
  YS02001751              0.01    430.14      0  01:07       0.001     0.000
  YS02001754              0.01    593.72      0  01:07       0.001     0.000
  YS02001757              0.77    730.69      0  02:03       1.025     0.000
  YS02001759              0.91  14764.09      0  01:37      12.312     0.000
  YS02001762              0.08     19.94      0  01:07       0.000     0.000
  YS02001765              0.01    105.37      0  01:06       0.000     0.000
  YS02001767              0.01    177.36      0  01:06       0.000     0.000
  YS02001770              1.89  24399.30      0  01:37      33.661     0.000
  YS02001774              0.01    150.28      0  01:06       0.000     0.000
  YS02001779              1.96    851.45      0  01:25       5.855     0.000
  YS02001882              0.01    142.65      0  01:05       0.001     0.000
  YS02001884              0.01     98.51      0  01:05       0.000     0.000
  YS02001887              0.96  15465.91      0  01:37      12.888     0.000
  YS02001890              1.93   1537.51      0  01:25       8.186     0.000
  YS02001895              0.01    398.22      0  01:05       0.001     0.000
  YS02001898              0.01    360.62      0  01:05       0.002     0.000
  YS02001901              0.01      4.43      0  01:06       0.000     0.000
  YS02001904              0.01     45.73      0  01:06       0.000     0.000
  YS02001907              1.99   4669.30      0  01:31      27.414     0.000
  YS02001915              1.83  21723.33      0  01:37      28.340     0.000
  YS02001918              1.19    585.15      0  01:06       1.677     0.000
  YS02001920              0.01     19.01      0  01:07       0.000     0.000
  YS02001923              0.01    699.89      0  01:06       0.002     0.000
  YS02001926              0.01   1245.93      0  01:06       0.003     0.000
  YS02001929              0.89   9851.02      0  01:38       8.962     0.000
  YS02006553              0.01     19.08      0  01:06       0.000     0.000
  YS02006558              0.85  21439.27      0  01:37      17.601     0.000
  YS02163301              0.01     28.46      0  01:06       0.000     0.000
  YS02163601              0.01     59.18      0  01:06       0.000     0.000
  YS02164001              0.01    136.77      0  01:06       0.000     0.000
  YSB1154                 1.54   9402.10      0  01:37      10.111     0.000
  YSB1171                 2.00   1629.47      0  01:21      10.757     0.000
  YSB1174                 1.20   7487.55      0  01:37       6.874     0.000
  YSB6556                 1.70     85.86      0  02:31       0.498     0.000
  CC-storage              0.98    410.31      0  02:06       1.156     0.000
  
  
  **********************
  Storage Volume Summary
  **********************
  
  ------------------------------------------------------------------------------------------------
                         Average    Avg   Evap  Exfil     Maximum    Max    Time of Max    Maximum
                          Volume   Pcnt   Pcnt   Pcnt      Volume   Pcnt     Occurrence    Outflow
  Storage Unit           1000 m³   Full   Loss   Loss     1000 m³   Full    days hr:min        LPS
  ------------------------------------------------------------------------------------------------
  CC-storage               4.905   76.5    0.0    0.0       6.410  100.0       0  02:06    1783.54
  JK-storage               0.135   46.4    0.0    0.0       0.212   72.8       0  02:51    2300.00
  
  
  ***********************
  Outfall Loading Summary
  ***********************
  
  -----------------------------------------------------------
                         Flow       Avg       Max       Total
                         Freq      Flow      Flow      Volume
  Outfall Node           Pcnt       LPS       LPS    10^6 ltr
  -----------------------------------------------------------
  CC-1                  83.54    683.00    683.00       7.078
  CC-2                  81.53    683.00    683.00       6.911
  JK-1                  58.09   1000.00   1000.00       7.337
  JK-2                   0.31   1000.00   1000.00       0.048
  WS02004402            95.08   1512.86   2427.26      18.064
  -----------------------------------------------------------
  System                63.71   4878.86   4793.26      39.438
  
  
  ********************
  Link Flow Summary
  ********************
  
  -----------------------------------------------------------------------------
                                 Maximum  Time of Max   Maximum    Max/    Max/
                                  |Flow|   Occurrence   |Veloc|    Full    Full
  Link                 Type          LPS  days hr:min     m/sec    Flow   Depth
  -----------------------------------------------------------------------------
  HS02004478WS02006287 CONDUIT   2674.87     0  01:05      3.00    0.75    1.00
  HS02004479HS02004480 CONDUIT    710.98     0  01:05      1.02    0.69    1.00
  HS02004480HS02004478 CONDUIT   2702.09     0  01:05      3.86   11.38    1.00
  HS02004770HS02004777 CONDUIT   1274.16     0  01:04      1.82    2.33    1.00
  HS02004777HS02004785 CONDUIT   1270.40     0  01:04      1.88    1.56    1.00
  HS02004785HS02004788 CONDUIT   1164.81     0  01:04      1.71    8.78    1.00
  HS02004788HS02004792 CONDUIT   1089.71     0  02:09      1.56    0.72    1.00
  HS02004792HS02004799 CONDUIT   1764.65     0  01:04      2.52    1.08    1.00
  HS02004799HS02004480 CONDUIT   2049.47     0  01:05      2.93    2.59    1.00
  HS02004802HS02004478 CONDUIT   1240.59     0  03:02      1.77    1.09    1.00
  HS02004807HS02004802 CONDUIT   1240.13     0  03:03      1.77    2.37    1.00
  HS02004817HS02004807 CONDUIT   1197.05     0  01:12      1.71    0.71    1.00
  HS02004817HS02004824 CONDUIT   1196.44     0  01:12      1.71    0.54    1.00
  HS02004824HS02004830 CONDUIT    872.23     0  02:04      1.25    1.14    1.00
  HS02004830HS02004837 CONDUIT   1048.24     0  01:41      1.50    1.04    1.00
  HS02004837HS02004842 CONDUIT   1084.84     0  01:40      1.55    0.65    1.00
  HS02004842HS02004848 CONDUIT   1269.84     0  01:38      1.81    0.74    1.00
  HS02004848HS02004852 CONDUIT   1457.58     0  01:06      2.21    1.64    1.00
  HS02004852HS02004856 CONDUIT   1427.17     0  01:06      2.12    1.63    1.00
  HS02004856HS02004862 CONDUIT   1502.97     0  01:06      2.19    1.50    1.00
  HS02004862HS02004870 CONDUIT   1704.73     0  01:06      2.58    1.84    1.00
  HS02004870HS02004876 CONDUIT   1730.21     0  01:06      2.47    1.15    1.00
  HS02004876HS02004881 CONDUIT   1974.20     0  01:06      2.90   21.00    1.00
  HS02004881HS02006253 CONDUIT   1741.50     0  02:25      3.17    0.34    1.00
  HS02004901HS02004770 CONDUIT    469.86     0  01:45      0.67    1.00    1.00
  WS02004401WS02004402 CONDUIT   2427.26     0  01:28      3.17    2.91    0.94
  WS02006109WS02006110 CONDUIT   1382.51     0  01:06      2.75    2.66    1.00
  WS02006110WS02006113 CONDUIT   1381.16     0  01:06      2.95    1.26    1.00
  WS02006111WS02006112 CONDUIT   1386.12     0  01:06      2.76    0.66    1.00
  WS02006112WS02006115 CONDUIT   2427.15     0  01:28      3.09    1.43    1.00
  WS02006113WS02006111 CONDUIT   1380.41     0  01:06      3.38    1.65    1.00
  WS02006115WS02006116 CONDUIT   2427.45     0  01:29      3.09    3.12    1.00
  WS02006116WS02004401 CONDUIT   2427.33     0  01:28      3.09    3.35    1.00
  WS02006228WS02006109 CONDUIT   1381.68     0  01:06      2.75    6.04    1.00
  WS02006229WS02006228 CONDUIT   1381.23     0  01:06      2.75    4.57    1.00
  WS02006230WS02006229 CONDUIT   1135.59     0  01:05      2.95   25.27    1.00
  WS02006231WS02006230 CONDUIT   1118.74     0  01:05      2.95   16.97    1.00
  WS02006232WS02006231 CONDUIT   1127.99     0  01:05      3.34    2.36    1.00
  WS02006234WS02006232 CONDUIT   1006.96     0  01:05      3.12    2.04    1.00
  WS02006235WS02006234 CONDUIT    945.47     0  01:06      2.50    9.98    1.00
  WS02006238WS02006235 CONDUIT   1030.44     0  01:06      3.08    2.30    1.00
  WS02006239WS02006238 CONDUIT    861.96     0  01:06      2.92    2.76    1.00
  WS02006240WS02006239 CONDUIT    827.30     0  01:06      2.43    2.60    1.00
  WS02006242WS02006240 CONDUIT    438.02     0  01:06      1.14    1.74    1.00
  WS02006243WS02006242 CONDUIT    639.65     0  01:06      1.80    1.37    1.00
  WS02006245WS02006243 CONDUIT    706.18     0  01:06      1.97    2.09    1.00
  WS02006247WS02006245 CONDUIT    767.82     0  01:06      2.05    6.09    1.00
  WS02006248WS02006247 CONDUIT    767.84     0  01:06      2.00    1.67    1.00
  WS02006249WS02006248 CONDUIT    806.06     0  01:05      2.10    4.42    1.00
  WS02006251WS02006249 CONDUIT   1411.09     0  01:27      3.67    4.07    1.00
  WS02006252WS02006251 CONDUIT    420.21     0  01:40     24.89    1.54    1.00
  WS02006253WS02006251 CONDUIT   1961.96     0  01:37      5.10    5.88    1.00
  WS02006256WS02006235 CONDUIT    288.93     0  00:00      4.23    3.06    1.00
  WS02006280WS02006229 CONDUIT   2433.79     0  01:05      5.62    0.52    1.00
  WS02006284WS02006280 CONDUIT   2477.12     0  01:05      3.32    1.04    1.00
  WS02006287WS02006284 CONDUIT   2669.17     0  01:05      3.41    1.24    1.00
  YS02001580YS02001583 CONDUIT    365.78     0  01:05      1.37    1.42    1.00
  YS02001583YS02001586 CONDUIT    357.31     0  01:05      1.52    0.54    1.00
  YS02001586YS02001590 CONDUIT    318.30     0  03:15      1.48    0.56    1.00
  YS02001590YS02001593 CONDUIT    318.21     0  03:11      1.13    2.00    1.00
  YS02001593YS02001596 CONDUIT    318.02     0  03:06      1.78    0.50    1.00
  YS02001596YS02001600 CONDUIT    318.03     0  03:11      1.33    0.62    1.00
  YS02001600YS02001601 CONDUIT    318.09     0  01:17      1.12    0.55    1.00
  YS02001601YS02001602 CONDUIT    638.84     0  01:05      2.26    2.31    1.00
  YS02001602YS02001605 CONDUIT    638.83     0  01:04      2.26   13.52    1.00
  YS02001605YS02001607 CONDUIT    638.75     0  01:05      2.26    3.50    1.00
  YS02001607YS02001610 CONDUIT    734.59     0  01:06      1.11    0.70    1.00
  YS02001610YS02001613 CONDUIT    620.36     0  01:06      0.93    0.72    1.00
  YS02001613YS02001616 CONDUIT    618.39     0  01:15      0.98    0.53    1.00
  YS02001616YS02001619 CONDUIT    618.80     0  01:15      1.00    1.07    1.00
  YS02001619YS02001622 CONDUIT   1159.46     0  01:05      2.37    1.71    1.00
  YS02001622YS02001625 CONDUIT   1053.68     0  01:16      1.39    0.56    1.00
  YS02001625YS02001629 CONDUIT    921.79     0  01:05      1.34    0.44    1.00
  YS02001629YS02163301 CONDUIT   1138.95     0  01:23      1.45    1.40    1.00
  YS02001633YS02163601 CONDUIT   1080.72     0  01:06      1.38    1.13    1.00
  YS02001641YS02001644 CONDUIT   1064.14     0  01:06      1.35    3.44    1.00
  YS02001644YS02001647 CONDUIT   1839.39     0  01:06      2.34    1.08    1.00
  YS02001647YS02001649 CONDUIT   1862.03     0  01:06      2.37    0.98    1.00
  YS02001649YS02001757 CONDUIT   1969.27     0  01:06      2.51    1.20    1.00
  YS02001652YS02001649 CONDUIT   2429.27     0  01:26      3.09    1.20    1.00
  YS02001655YS02001652 CONDUIT   2429.25     0  01:31      3.09    1.18    1.00
  YS02001658YS02001655 CONDUIT   2731.29     0  01:48      3.48    1.16    1.00
  YS02001661YS02001658 CONDUIT   2783.76     0  01:26      3.54    1.09    1.00
  YS02001664YS02001661 CONDUIT   2783.77     0  01:26      3.54    0.87    1.00
  YS02001745YS02001748 CONDUIT   3122.08     0  01:36      3.98    1.20    1.00
  YS02001748YS02001751 CONDUIT   2358.55     0  01:27      3.00    1.19    1.00
  YS02001751YS02001754 CONDUIT   2358.60     0  01:27      3.00    1.14    1.00
  YS02001754YS02001757 CONDUIT   2358.37     0  01:27      3.00    0.95    1.00
  YS02001757CaochengTiaoxuchi CONDUIT   3659.62     0  01:08      5.16    1.58    1.00
  YS02001759YS02001757 CONDUIT   1611.58     0  01:07      2.05    1.15    1.00
  YS02001762YS02001759 CONDUIT    735.58     0  01:07      0.94    0.85    1.00
  YS02001765YS02001762 CONDUIT    751.12     0  01:07      0.96    0.70    1.00
  YS02001767YS02001765 CONDUIT    760.22     0  01:07      0.97    0.96    1.00
  YS02001770YS02001767 CONDUIT    840.48     0  01:06      1.15    3.33    1.00
  YS02001774YS02001770 CONDUIT    852.08     0  01:23      1.08    0.54    1.00
  YS02001779YS02001774 CONDUIT    851.71     0  01:25      1.08    0.43    1.00
  YS02001783YS02001784 CONDUIT   1322.16     0  01:24      2.63    1.82    1.00
  YS02001784YS02001785 CONDUIT   1323.13     0  01:24      2.63    3.08    1.00
  YS02001786YS02001788 CONDUIT   1323.09     0  02:04      2.74    2.55    0.94
  YS02001788YS02001790 CONDUIT   1352.97     0  01:42      2.94    1.00    0.93
  YS02001790YS02001791 CONDUIT   1422.26     0  02:02      3.57    1.55    0.77
  YS02001791YS02001793 CONDUIT   1458.76     0  02:02      6.93    0.63    0.51
  YS02001793JiankangQianchi CONDUIT   1559.99     0  01:42      3.00    0.12    0.69
  YS02001882YS02001884 CONDUIT    196.25     0  01:05      0.63    0.22    1.00
  YS02001884YS02001887 CONDUIT    367.06     0  01:05      0.63    0.49    1.00
  YS02001887YS02001890 CONDUIT   2052.03     0  01:33      2.61    3.51    1.00
  YS02001890YS02001895 CONDUIT    678.72     0  01:05      0.88    0.32    1.00
  YS02001895YS02001898 CONDUIT    517.89     0  01:13      0.96    0.90    1.00
  YS02001898YS02001901 CONDUIT    517.93     0  01:21      0.71    0.33    1.00
  YS02001901YS02001904 CONDUIT    518.05     0  01:13      1.04    0.80    1.00
  YS02001904YS02001907 CONDUIT    518.13     0  01:18      0.75    0.18    1.00
  YS02001907YS02006553 CONDUIT   2160.90     0  01:31      2.40    2.54    1.00
  YS02001910YS02001907 CONDUIT   1992.99     0  01:19      2.54    1.12    1.00
  YS02001915YS02001910 CONDUIT   1993.14     0  01:14      2.54    0.99    1.00
  YS02001918YS02001915 CONDUIT   1221.69     0  01:49      1.56    0.67    1.00
  YS02001920YS02001918 CONDUIT   1681.92     0  01:27      2.14    1.63    1.00
  YS02001923YS02001920 CONDUIT   1679.20     0  01:27      2.14    0.75    1.00
  YS02001926YS02001923 CONDUIT   1678.98     0  01:29      2.14    2.40    1.00
  YS02001929YS02001926 CONDUIT   1678.97     0  01:27      2.14    0.80    1.00
  YS02006553YS02006556 CONDUIT   2160.84     0  01:31      2.75    1.85    1.00
  YS02006556YS02006558 CONDUIT   2161.05     0  01:31      2.75    1.71    1.00
  YS02006558YS02006561 CONDUIT   1322.07     0  01:24      4.68    2.92    1.00
  YS02006561YS02001783 CONDUIT   1322.04     0  01:24      2.63    0.68    1.00
  YS02163301YS02001633 CONDUIT   1138.85     0  01:24      1.45    1.07    1.00
  YS02163601YS02164001 CONDUIT   1073.48     0  01:06      1.37    0.95    1.00
  YS02164001YS02001641 CONDUIT   1063.05     0  01:06      1.35    1.45    1.00
  YSB1154YSB6556       CONDUIT    725.69     0  01:43      1.89    1.30    1.00
  YSB1171HS02004479    CONDUIT    722.44     0  01:05      1.44    0.48    1.00
  YSB1174YSB1171       CONDUIT    750.69     0  02:27      1.95    1.15    1.00
  YSB6556YSB1171       CONDUIT    639.84     0  01:26      1.66    0.66    1.00
  CC-R1                PUMP       683.00     0  00:00              1.00
  CC-R2                PUMP       683.00     0  00:00              1.00
  CC-S1                PUMP       200.00     0  00:00              1.00
  CC-S2                PUMP       200.00     0  00:00              1.00
  JK-R1                PUMP      1000.00     0  00:00              1.00
  JK-R2                PUMP      1000.00     0  00:00              1.00
  JK-S                 PUMP       300.00     0  00:00              1.00
  
  
  ***************************
  Flow Classification Summary
  ***************************
  
  -------------------------------------------------------------------------------------
                      Adjusted    ---------- Fraction of Time in Flow Class ---------- 
                       /Actual         Up    Down  Sub   Sup   Up    Down  Norm  Inlet 
  Conduit               Length    Dry  Dry   Dry   Crit  Crit  Crit  Crit  Ltd   Ctrl  
  -------------------------------------------------------------------------------------
  HS02004478WS02006287    1.00   0.26  0.00  0.00  0.56  0.18  0.00  0.00  0.04  0.00
  HS02004479HS02004480    1.00   0.07  0.00  0.00  0.93  0.00  0.00  0.00  0.17  0.00
  HS02004480HS02004478    1.00   0.25  0.00  0.00  0.56  0.00  0.00  0.19  0.00  0.00
  HS02004770HS02004777    1.00   0.00  0.25  0.00  0.75  0.00  0.00  0.00  0.00  0.00
  HS02004777HS02004785    1.00   0.00  0.00  0.00  1.00  0.00  0.00  0.00  0.17  0.00
  HS02004785HS02004788    1.00   0.00  0.00  0.00  1.00  0.00  0.00  0.00  0.00  0.00
  HS02004788HS02004792    1.00   0.00  0.00  0.00  0.98  0.02  0.00  0.00  0.41  0.00
  HS02004792HS02004799    1.00   0.00  0.00  0.00  0.98  0.02  0.00  0.00  0.39  0.00
  HS02004799HS02004480    1.00   0.01  0.07  0.00  0.74  0.00  0.19  0.00  0.00  0.00
  HS02004802HS02004478    1.00   0.25  0.00  0.00  0.74  0.00  0.00  0.00  0.00  0.00
  HS02004807HS02004802    1.00   0.25  0.00  0.00  0.74  0.00  0.00  0.01  0.00  0.00
  HS02004817HS02004807    1.00   0.00  0.25  0.00  0.75  0.00  0.00  0.00  0.01  0.00
  HS02004817HS02004824    1.00   0.00  0.00  0.00  1.00  0.00  0.00  0.00  0.39  0.00
  HS02004824HS02004830    1.00   0.00  0.00  0.00  1.00  0.00  0.00  0.00  0.00  0.00
  HS02004830HS02004837    1.00   0.00  0.00  0.00  1.00  0.00  0.00  0.00  0.40  0.00
  HS02004837HS02004842    1.00   0.00  0.00  0.00  0.99  0.01  0.00  0.00  0.21  0.00
  HS02004842HS02004848    1.00   0.00  0.25  0.00  0.75  0.00  0.00  0.00  0.00  0.00
  HS02004848HS02004852    1.00   0.25  0.00  0.00  0.75  0.00  0.00  0.00  0.18  0.00
  HS02004852HS02004856    1.00   0.25  0.00  0.00  0.75  0.00  0.00  0.00  0.13  0.00
  HS02004856HS02004862    1.00   0.00  0.26  0.00  0.74  0.00  0.00  0.00  0.18  0.00
  HS02004862HS02004870    1.00   0.00  0.00  0.00  1.00  0.00  0.00  0.00  0.01  0.00
  HS02004870HS02004876    1.00   0.01  0.00  0.00  0.97  0.02  0.00  0.00  0.34  0.00
  HS02004876HS02004881    1.00   0.04  0.00  0.00  0.82  0.14  0.00  0.00  0.00  0.00
  HS02004881HS02006253    1.00   0.07  0.04  0.00  0.73  0.01  0.00  0.16  0.18  0.00
  HS02004901HS02004770    1.00   0.25  0.00  0.00  0.75  0.00  0.00  0.00  0.00  0.00
  WS02004401WS02004402    1.00   0.05  0.00  0.00  0.95  0.00  0.00  0.00  0.00  0.00
  WS02006109WS02006110    1.00   0.00  0.02  0.00  0.96  0.00  0.02  0.00  0.00  0.00
  WS02006110WS02006113    1.00   0.02  0.02  0.00  0.96  0.00  0.00  0.00  0.00  0.00
  WS02006111WS02006112    1.00   0.04  0.00  0.00  0.95  0.00  0.00  0.00  0.32  0.00
  WS02006112WS02006115    1.00   0.04  0.01  0.00  0.95  0.00  0.01  0.00  0.00  0.00
  WS02006113WS02006111    1.00   0.04  0.00  0.00  0.56  0.40  0.00  0.00  0.06  0.00
  WS02006115WS02006116    1.00   0.05  0.00  0.00  0.79  0.00  0.00  0.16  0.00  0.00
  WS02006116WS02004401    1.00   0.05  0.00  0.00  0.95  0.00  0.00  0.00  0.00  0.00
  WS02006228WS02006109    1.00   0.00  0.00  0.00  1.00  0.00  0.00  0.00  0.01  0.00
  WS02006229WS02006228    1.00   0.00  0.00  0.00  0.98  0.00  0.00  0.02  0.00  0.00
  WS02006230WS02006229    1.00   0.00  0.00  0.00  0.97  0.00  0.00  0.03  0.00  0.00
  WS02006231WS02006230    1.00   0.00  0.00  0.00  0.73  0.00  0.26  0.00  0.00  0.00
  WS02006232WS02006231    1.00   0.00  0.00  0.00  0.99  0.00  0.01  0.00  0.00  0.00
  WS02006234WS02006232    1.00   0.00  0.00  0.00  0.99  0.01  0.00  0.00  0.01  0.00
  WS02006235WS02006234    1.00   0.00  0.00  0.00  0.94  0.00  0.06  0.00  0.00  0.00
  WS02006238WS02006235    1.00   0.00  0.00  0.00  1.00  0.00  0.00  0.00  0.00  0.00
  WS02006239WS02006238    1.00   0.00  0.00  0.00  1.00  0.00  0.00  0.00  0.11  0.00
  WS02006240WS02006239    1.00   0.00  0.00  0.00  0.84  0.00  0.00  0.15  0.01  0.00
  WS02006242WS02006240    1.00   0.01  0.00  0.00  0.99  0.00  0.01  0.00  0.00  0.00
  WS02006243WS02006242    1.00   0.01  0.00  0.00  0.98  0.00  0.00  0.01  0.20  0.00
  WS02006245WS02006243    1.00   0.00  0.00  0.00  0.91  0.00  0.00  0.08  0.00  0.00
  WS02006247WS02006245    1.00   0.00  0.00  0.00  0.98  0.00  0.00  0.02  0.00  0.00
  WS02006248WS02006247    1.00   0.00  0.00  0.00  0.99  0.00  0.00  0.01  0.15  0.00
  WS02006249WS02006248    1.00   0.00  0.00  0.00  0.79  0.00  0.21  0.00  0.00  0.00
  WS02006251WS02006249    1.00   0.00  0.00  0.00  1.00  0.00  0.00  0.00  0.20  0.00
  WS02006252WS02006251    1.00   0.00  0.24  0.00  0.73  0.00  0.03  0.00  0.00  0.00
  WS02006253WS02006251    1.00   0.00  0.00  0.00  0.93  0.00  0.07  0.00  0.00  0.00
  WS02006256WS02006235    1.00   0.00  0.00  0.00  1.00  0.00  0.00  0.00  0.00  0.00
  WS02006280WS02006229    1.00   0.26  0.00  0.00  0.56  0.05  0.00  0.12  0.01  0.00
  WS02006284WS02006280    1.00   0.26  0.00  0.00  0.55  0.00  0.00  0.18  0.00  0.00
  WS02006287WS02006284    1.00   0.21  0.05  0.00  0.55  0.18  0.00  0.01  0.17  0.00
  YS02001580YS02001583    1.00   0.27  0.00  0.00  0.73  0.00  0.00  0.00  0.14  0.00
  YS02001583YS02001586    1.00   0.25  0.02  0.00  0.73  0.00  0.00  0.00  0.14  0.00
  YS02001586YS02001590    1.00   0.25  0.00  0.00  0.74  0.00  0.00  0.01  0.14  0.00
  YS02001590YS02001593    1.00   0.25  0.00  0.00  0.61  0.00  0.14  0.00  0.00  0.00
  YS02001593YS02001596    1.00   0.25  0.00  0.00  0.62  0.01  0.00  0.11  0.02  0.00
  YS02001596YS02001600    1.00   0.25  0.00  0.00  0.68  0.01  0.00  0.05  0.04  0.00
  YS02001600YS02001601    1.00   0.25  0.00  0.00  0.74  0.00  0.00  0.00  0.00  0.00
  YS02001601YS02001602    1.00   0.25  0.00  0.00  0.75  0.00  0.00  0.00  0.00  0.00
  YS02001602YS02001605    1.00   0.25  0.00  0.00  0.75  0.00  0.00  0.00  0.00  0.00
  YS02001605YS02001607    1.00   0.25  0.00  0.00  0.75  0.00  0.00  0.00  0.00  0.00
  YS02001607YS02001610    1.00   0.26  0.00  0.00  0.74  0.00  0.00  0.00  0.00  0.00
  YS02001610YS02001613    1.00   0.25  0.00  0.00  0.75  0.00  0.00  0.00  0.00  0.00
  YS02001613YS02001616    1.00   0.25  0.00  0.00  0.75  0.00  0.00  0.00  0.00  0.00
  YS02001616YS02001619    1.00   0.25  0.00  0.00  0.75  0.00  0.00  0.00  0.00  0.00
  YS02001619YS02001622    1.00   0.25  0.00  0.00  0.74  0.01  0.00  0.00  0.00  0.00
  YS02001622YS02001625    1.00   0.25  0.00  0.00  0.74  0.01  0.00  0.00  0.00  0.00
  YS02001625YS02001629    1.00   0.25  0.01  0.00  0.69  0.00  0.05  0.00  0.00  0.00
  YS02001629YS02163301    1.00   0.25  0.00  0.00  0.74  0.00  0.00  0.00  0.00  0.00
  YS02001633YS02163601    1.00   0.00  0.01  0.00  0.99  0.00  0.00  0.00  0.24  0.00
  YS02001641YS02001644    1.00   0.00  0.01  0.00  0.99  0.00  0.00  0.00  0.00  0.00
  YS02001644YS02001647    1.00   0.00  0.26  0.00  0.74  0.00  0.00  0.00  0.00  0.00
  YS02001647YS02001649    1.00   0.00  0.26  0.00  0.74  0.00  0.00  0.00  0.02  0.00
  YS02001649YS02001757    1.00   0.00  0.00  0.00  1.00  0.00  0.00  0.00  0.26  0.00
  YS02001652YS02001649    1.00   0.00  0.00  0.00  0.99  0.01  0.00  0.00  0.23  0.00
  YS02001655YS02001652    1.00   0.00  0.00  0.00  0.72  0.01  0.00  0.27  0.02  0.00
  YS02001658YS02001655    1.00   0.00  0.25  0.00  0.71  0.04  0.00  0.00  0.06  0.00
  YS02001661YS02001658    1.00   0.25  0.00  0.00  0.66  0.09  0.00  0.00  0.12  0.00
  YS02001664YS02001661    1.00   0.25  0.00  0.00  0.72  0.03  0.00  0.00  0.22  0.00
  YS02001745YS02001748    1.00   0.00  0.00  0.00  0.66  0.00  0.00  0.34  0.06  0.00
  YS02001748YS02001751    1.00   0.00  0.00  0.00  0.97  0.03  0.00  0.00  0.29  0.00
  YS02001751YS02001754    1.00   0.00  0.00  0.00  0.72  0.00  0.00  0.27  0.02  0.00
  YS02001754YS02001757    1.00   0.00  0.00  0.00  0.99  0.01  0.00  0.00  0.26  0.00
  YS02001757CaochengTiaoxuchi    1.00   0.00  0.00  0.00  0.97  0.03  0.00  0.00  0.26  0.00
  YS02001759YS02001757    1.00   0.00  0.00  0.00  0.99  0.01  0.00  0.00  0.13  0.00
  YS02001762YS02001759    1.00   0.00  0.00  0.00  1.00  0.00  0.00  0.00  0.01  0.00
  YS02001765YS02001762    1.00   0.00  0.00  0.00  1.00  0.00  0.00  0.00  0.22  0.00
  YS02001767YS02001765    1.00   0.00  0.00  0.00  1.00  0.00  0.00  0.00  0.00  0.00
  YS02001770YS02001767    1.00   0.00  0.00  0.00  1.00  0.00  0.00  0.00  0.00  0.00
  YS02001774YS02001770    1.00   0.00  0.25  0.00  0.74  0.00  0.00  0.00  0.00  0.00
  YS02001779YS02001774    1.00   0.00  0.00  0.00  1.00  0.00  0.00  0.00  0.25  0.00
  YS02001783YS02001784    1.00   0.00  0.26  0.00  0.73  0.00  0.00  0.00  0.01  0.00
  YS02001784YS02001785    1.00   0.00  0.00  0.00  1.00  0.00  0.00  0.00  0.24  0.00
  YS02001786YS02001788    1.00   0.00  0.00  0.00  0.79  0.21  0.00  0.00  0.00  0.00
  YS02001788YS02001790    1.00   0.00  0.00  0.00  0.51  0.49  0.00  0.00  0.41  0.00
  YS02001790YS02001791    1.00   0.00  0.00  0.00  0.03  0.97  0.00  0.00  0.18  0.00
  YS02001791YS02001793    1.00   0.00  0.00  0.00  0.00  1.00  0.00  0.00  0.08  0.00
  YS02001793JiankangQianchi    1.00   0.00  0.00  0.00  0.61  0.39  0.00  0.00  0.65  0.00
  YS02001882YS02001884    1.00   0.26  0.00  0.00  0.74  0.00  0.00  0.00  0.00  0.00
  YS02001884YS02001887    1.00   0.12  0.11  0.00  0.77  0.00  0.00  0.00  0.00  0.00
  YS02001887YS02001890    1.00   0.00  0.00  0.00  0.94  0.00  0.06  0.00  0.00  0.00
  YS02001890YS02001895    1.00   0.01  0.25  0.00  0.74  0.00  0.00  0.00  0.00  0.00
  YS02001895YS02001898    1.00   0.26  0.00  0.00  0.73  0.00  0.01  0.00  0.00  0.00
  YS02001898YS02001901    1.00   0.26  0.00  0.00  0.74  0.00  0.00  0.00  0.00  0.00
  YS02001901YS02001904    1.00   0.26  0.00  0.00  0.74  0.00  0.00  0.00  0.00  0.00
  YS02001904YS02001907    1.00   0.01  0.25  0.00  0.74  0.00  0.00  0.00  0.00  0.00
  YS02001907YS02006553    1.00   0.01  0.04  0.00  0.95  0.00  0.00  0.00  0.01  0.00
  YS02001910YS02001907    1.00   0.00  0.00  0.00  0.94  0.01  0.00  0.05  0.20  0.00
  YS02001915YS02001910    1.00   0.00  0.00  0.00  0.96  0.04  0.00  0.00  0.20  0.00
  YS02001918YS02001915    1.00   0.00  0.01  0.00  0.96  0.03  0.00  0.00  0.20  0.00
  YS02001920YS02001918    1.00   0.00  0.01  0.00  0.99  0.00  0.00  0.00  0.00  0.00
  YS02001923YS02001920    1.00   0.00  0.00  0.00  1.00  0.00  0.00  0.00  0.47  0.00
  YS02001926YS02001923    1.00   0.00  0.15  0.00  0.52  0.00  0.34  0.00  0.00  0.00
  YS02001929YS02001926    1.00   0.00  0.25  0.00  0.74  0.01  0.00  0.00  0.22  0.00
  YS02006553YS02006556    1.00   0.03  0.00  0.00  0.97  0.00  0.00  0.00  0.06  0.00
  YS02006556YS02006558    1.00   0.00  0.01  0.00  0.99  0.00  0.00  0.00  0.00  0.00
  YS02006558YS02006561    1.00   0.26  0.00  0.00  0.51  0.23  0.00  0.00  0.17  0.00
  YS02006561YS02001783    1.00   0.26  0.00  0.00  0.54  0.20  0.00  0.00  0.17  0.00
  YS02163301YS02001633    1.00   0.00  0.25  0.00  0.75  0.00  0.00  0.00  0.00  0.00
  YS02163601YS02164001    1.00   0.00  0.16  0.00  0.84  0.00  0.00  0.00  0.00  0.00
  YS02164001YS02001641    1.00   0.02  0.15  0.00  0.84  0.00  0.00  0.00  0.09  0.00
  YSB1154YSB6556          1.00   0.25  0.00  0.00  0.75  0.00  0.00  0.00  0.01  0.00
  YSB1171HS02004479       1.00   0.08  0.00  0.00  0.89  0.00  0.00  0.03  0.15  0.00
  YSB1174YSB1171          1.00   0.10  0.09  0.00  0.81  0.00  0.00  0.00  0.00  0.00
  YSB6556YSB1171          1.00   0.08  0.17  0.00  0.75  0.00  0.00  0.00  0.00  0.00
  
  
  *************************
  Conduit Surcharge Summary
  *************************
  
  ----------------------------------------------------------------------------
                                                           Hours        Hours 
                         --------- Hours Full --------   Above Full   Capacity
  Conduit                Both Ends  Upstream  Dnstream   Normal Flow   Limited
  ----------------------------------------------------------------------------
  HS02004478WS02006287        2.08      2.08      2.16      0.01         0.01
  HS02004479HS02004480        2.19      2.19      2.19      0.01         0.01
  HS02004480HS02004478        2.14      2.18      2.14      2.57         2.14
  HS02004770HS02004777        2.14      2.14      2.15      0.04         0.02
  HS02004777HS02004785        2.11      2.11      2.15      0.01         0.01
  HS02004785HS02004788        2.10      2.11      2.10      2.12         0.21
  HS02004788HS02004792        2.10      2.10      2.17      0.01         0.01
  HS02004792HS02004799        2.17      2.17      2.21      0.01         0.01
  HS02004799HS02004480        2.18      2.18      2.21      2.24         0.01
  HS02004802HS02004478        2.15      2.15      2.19      1.93         0.01
  HS02004807HS02004802        2.18      2.18      2.19      2.00         2.00
  HS02004817HS02004807        2.18      2.18      2.38      0.01         0.01
  HS02004817HS02004824        2.11      2.11      2.38      0.01         0.01
  HS02004824HS02004830        2.08      2.09      2.11      0.82         0.83
  HS02004830HS02004837        2.06      2.06      2.09      0.59         0.59
  HS02004837HS02004842        2.06      2.06      2.14      0.01         0.01
  HS02004842HS02004848        2.05      2.05      2.14      0.01         0.01
  HS02004848HS02004852        2.05      2.05      2.06      0.02         0.06
  HS02004852HS02004856        2.06      2.06      2.08      1.11         1.06
  HS02004856HS02004862        2.05      2.05      2.08      0.02         0.01
  HS02004862HS02004870        2.07      2.08      2.09      0.11         0.10
  HS02004870HS02004876        2.08      2.09      2.13      0.01         0.01
  HS02004876HS02004881        2.11      2.13      2.11      2.53         2.11
  HS02004881HS02006253        2.11      2.11      2.91      0.01         0.01
  HS02004901HS02004770        2.13      2.13      2.14      1.70         0.01
  WS02004401WS02004402        0.01      1.27      0.01      2.44         0.01
  WS02006109WS02006110        2.91      2.91      2.92      2.92         0.01
  WS02006110WS02006113        2.22      2.22      2.92      1.30         0.01
  WS02006111WS02006112        2.12      2.12      2.91      0.01         0.01
  WS02006112WS02006115        1.97      1.97      2.49      1.87         0.01
  WS02006113WS02006111        2.14      2.22      2.14      2.44         2.10
  WS02006115WS02006116        1.90      1.98      1.90      2.48         1.89
  WS02006116WS02004401        1.27      1.94      1.27      2.55         1.27
  WS02006228WS02006109        2.92      2.92      2.92      3.02         2.92
  WS02006229WS02006228        2.92      2.92      2.92      2.96         2.92
  WS02006230WS02006229        2.92      2.92      2.92      3.23         0.69
  WS02006231WS02006230        2.90      2.90      2.91      3.13         2.23
  WS02006232WS02006231        2.91      2.91      2.91      0.04         0.15
  WS02006234WS02006232        2.90      2.90      2.91      0.03         0.01
  WS02006235WS02006234        2.90      2.90      2.90      3.06         2.21
  WS02006238WS02006235        2.90      2.90      2.90      0.02         0.35
  WS02006239WS02006238        2.89      2.89      2.90      2.73         0.48
  WS02006240WS02006239        2.89      2.89      2.89      2.72         0.47
  WS02006242WS02006240        2.89      2.89      2.89      2.80         2.20
  WS02006243WS02006242        2.89      2.89      2.89      0.01         0.01
  WS02006245WS02006243        2.89      2.90      2.89      0.51         0.42
  WS02006247WS02006245        2.90      2.90      2.90      2.93         0.62
  WS02006248WS02006247        2.90      2.90      2.90      0.02         0.02
  WS02006249WS02006248        2.90      2.90      2.91      0.68         0.01
  WS02006251WS02006249        2.91      2.91      2.91      3.03         2.91
  WS02006252WS02006251        3.04      3.04      3.04      2.92         1.91
  WS02006253WS02006251        2.91      2.91      2.92      2.25         0.01
  WS02006256WS02006235        3.12      3.12      3.55      0.25         0.01
  WS02006280WS02006229        2.20      2.20      2.23      0.01         0.01
  WS02006284WS02006280        2.16      2.16      2.19      0.01         0.01
  WS02006287WS02006284        2.13      2.13      2.17      2.05         2.02
  YS02001580YS02001583        2.25      2.25      2.26      0.01         0.01
  YS02001583YS02001586        2.25      2.25      2.32      0.01         0.01
  YS02001586YS02001590        2.33      2.33      2.37      0.01         0.01
  YS02001590YS02001593        2.37      2.37      2.38      2.44         0.01
  YS02001593YS02001596        2.37      2.37      2.43      0.01         0.01
  YS02001596YS02001600        2.44      2.44      2.50      0.01         0.01
  YS02001600YS02001601        2.54      2.54      2.68      0.01         0.01
  YS02001601YS02001602        2.64      2.64      2.70      2.45         0.01
  YS02001602YS02001605        2.62      2.62      2.64      2.96         0.01
  YS02001605YS02001607        2.61      2.62      2.62      2.56         2.53
  YS02001607YS02001610        2.37      2.37      2.39      0.01         0.01
  YS02001610YS02001613        2.37      2.38      2.39      0.01         0.01
  YS02001613YS02001616        2.34      2.34      2.38      0.01         0.01
  YS02001616YS02001619        2.34      2.34      2.34      1.87         1.76
  YS02001619YS02001622        2.34      2.34      2.34      2.28         2.20
  YS02001622YS02001625        2.34      2.34      2.47      0.01         0.01
  YS02001625YS02001629        2.31      2.31      2.47      0.01         0.01
  YS02001629YS02163301        2.48      2.49      2.50      1.70         0.03
  YS02001633YS02163601        2.52      2.52      2.56      0.01         0.03
  YS02001641YS02001644        2.51      2.52      2.51      2.75         2.48
  YS02001644YS02001647        2.40      2.40      2.51      0.01         0.01
  YS02001647YS02001649        2.40      2.40      2.52      0.01         0.01
  YS02001649YS02001757        2.52      2.52      2.60      0.02         0.01
  YS02001652YS02001649        2.39      2.39      2.52      1.16         1.16
  YS02001655YS02001652        2.23      2.23      2.37      1.14         1.14
  YS02001658YS02001655        2.02      2.02      2.23      1.01         1.01
  YS02001661YS02001658        1.89      1.89      2.02      0.94         0.94
  YS02001664YS02001661        1.58      1.58      1.89      0.01         0.01
  YS02001745YS02001748        1.67      1.67      1.98      0.55         0.55
  YS02001748YS02001751        2.02      2.03      2.18      0.72         0.72
  YS02001751YS02001754        2.18      2.18      2.32      0.69         0.69
  YS02001754YS02001757        2.36      2.36      2.60      0.01         0.01
  YS02001757CaochengTiaoxuchi        2.50      2.60      2.79      0.86         0.75
  YS02001759YS02001757        2.53      2.53      2.60      0.38         0.30
  YS02001762YS02001759        2.50      2.50      2.53      0.01         0.01
  YS02001765YS02001762        2.47      2.47      2.50      0.01         0.01
  YS02001767YS02001765        2.44      2.44      2.47      0.01         0.01
  YS02001770YS02001767        2.43      2.43      2.44      1.80         0.19
  YS02001774YS02001770        2.42      2.42      2.48      0.01         0.01
  YS02001779YS02001774        2.31      2.31      2.48      0.01         0.01
  YS02001783YS02001784        2.08      2.09      2.08      2.15         2.08
  YS02001784YS02001785        2.03      2.08      2.03      2.22         2.03
  YS02001786YS02001788        0.01      2.03      0.01      2.19         0.01
  YS02001790YS02001791        0.01      0.01      0.01      2.08         0.01
  YS02001793JiankangQianchi        0.01      0.01      3.71      0.01         0.01
  YS02001882YS02001884        2.07      2.07      2.08      0.01         0.01
  YS02001884YS02001887        2.09      2.09      2.09      0.01         0.01
  YS02001887YS02001890        2.10      2.10      2.11      1.92         0.01
  YS02001890YS02001895        2.06      2.06      2.11      0.01         0.01
  YS02001895YS02001898        2.06      2.06      2.06      0.01         0.01
  YS02001898YS02001901        2.06      2.06      2.09      0.01         0.01
  YS02001901YS02001904        2.08      2.08      2.09      0.01         0.01
  YS02001904YS02001907        2.08      2.08      2.18      0.01         0.01
  YS02001907YS02006553        2.22      2.22      2.24      1.36         1.37
  YS02001910YS02001907        2.11      2.11      2.18      1.85         1.86
  YS02001915YS02001910        2.07      2.07      2.11      0.01         0.04
  YS02001918YS02001915        2.02      2.02      2.07      0.01         0.01
  YS02001920YS02001918        2.02      2.02      2.03      1.34         0.01
  YS02001923YS02001920        2.00      2.00      2.03      0.01         0.01
  YS02001926YS02001923        1.92      1.92      1.92      1.81         0.01
  YS02001929YS02001926        1.87      1.87      1.92      0.01         0.01
  YS02006553YS02006556        2.14      2.14      2.18      1.19         1.19
  YS02006556YS02006558        2.16      2.16      2.19      1.15         0.01
  YS02006558YS02006561        2.04      2.14      2.04      2.21         2.04
  YS02006561YS02001783        2.00      2.00      2.09      0.01         0.01
  YS02163301YS02001633        2.50      2.50      2.53      1.42         0.01
  YS02163601YS02164001        2.51      2.51      2.56      0.01         0.01
  YS02164001YS02001641        2.51      2.51      2.52      1.92         1.88
  YSB1154YSB6556              2.21      2.21      2.24      1.86         0.01
  YSB1171HS02004479           2.16      2.16      2.24      0.01         0.01
  YSB1174YSB1171              2.22      2.22      2.31      1.35         1.35
  YSB6556YSB1171              2.21      2.21      2.36      0.01         0.01
  
  
  ***************
  Pumping Summary
  ***************
  
  ---------------------------------------------------------------------------------------------------------
                                                  Min       Avg       Max     Total     Power    % Time Off
                        Percent   Number of      Flow      Flow      Flow    Volume     Usage    Pump Curve
  Pump                 Utilized   Start-Ups       LPS       LPS       LPS  10^6 ltr     Kw-hr    Low   High
  ---------------------------------------------------------------------------------------------------------
  CC-R1                   71.97           2      0.00    683.00    683.00     7.078    144.00    0.0   66.3
  CC-R2                   70.27           2      0.00    683.00    683.00     6.911    140.90    0.0   67.9
  CC-S1                   74.36           2      0.00    200.00    200.00     2.142     12.08    0.0   59.6
  CC-S2                   73.21           2      0.00    200.00    200.00     2.108     11.78    0.0   60.5
  JK-R1                   50.94           4      0.00   1000.00   1000.00     7.336     81.85    0.0    0.0
  JK-R2                    0.33           1      0.00   1000.00   1000.00     0.047      0.36    0.0    0.0
  JK-S                    59.61           2      0.00    300.00    300.00     2.575     37.74    0.0    0.0
  

  Analysis begun on:  Tue Jun  9 17:05:08 2026
  Analysis ended on:  Tue Jun  9 17:05:08 2026
  Total elapsed time: < 1 sec